59
 K:1,2;
P      1.526748     -1.739035      0.201254
P      1.703192      1.404236     -0.660078
C      2.220625     -2.574209      1.682259
C      1.022114     -3.143284     -0.947046
C      1.370917      2.205740     -2.334427
C      2.347479      2.607834      0.642958
C      3.179108      0.308131     -0.946365
C      3.104167     -1.072883     -0.541384
N      4.146614     -1.862574     -0.624299
N      4.288687      0.813058     -1.429884
C      5.365044     -0.004513     -1.549105
C      5.295741     -1.354517     -1.135583
C      6.438577     -2.181366     -1.251235
H      6.358024     -3.211259     -0.924689
C      6.575449      0.503788     -2.077834
C      7.595962     -1.668207     -1.767861
H      8.473570     -2.297278     -1.861203
C      7.664647     -0.316104     -2.184395
H      6.602493      1.542047     -2.386349
H      8.593098      0.067666     -2.591017
H      3.095396     -3.173026      1.424602
H      2.505865     -1.814693      2.412546
H      1.451710     -3.205537      2.130937
C      0.776769     -2.532279     -2.332834
H      0.435402     -3.316275     -3.017108
H     -0.000801     -1.764095     -2.296537
H      1.690797     -2.102628     -2.754626
C     -0.308947     -3.684072     -0.402135
H     -1.066334     -2.898447     -0.362429
H     -0.669594     -4.476774     -1.066315
H     -0.197215     -4.118464      0.596235
C      2.048251     -4.275496     -1.034363
H      2.194097     -4.764835     -0.067495
H      1.682167     -5.033863     -1.735035
H      3.018757     -3.921721     -1.384541
C      0.824378      1.061494     -3.206995
H     -0.075186      0.612925     -2.776759
H      0.567819      1.460424     -4.194105
H      1.572145      0.276307     -3.354604
C      2.555179      2.855303     -3.057590
H      3.353755      2.140107     -3.251628
H      2.198735      3.242733     -4.018875
H      2.981018      3.690763     -2.503053
C      0.255834      3.240969     -2.126966
H      0.624980      4.135437     -1.618529
H     -0.126081      3.553965     -3.104316
H     -0.577487      2.824041     -1.554204
C      3.352210      3.647137      0.142173
H      2.873130      4.383246     -0.506981
H      3.767435      4.188441      0.999797
H      4.175530      3.182422     -0.403901
C      1.125919      3.305667      1.262941
H      0.406619      2.581771      1.654851
H      1.458694      3.945005      2.087943
H      0.601368      3.937918      0.545202
C      3.004104      1.740900      1.731750
H      2.333733      0.943557      2.068703
H      3.939082      1.290944      1.389973
H      3.234177      2.369010      2.598303
