11
CF:2,90
C                  1.40117000    0.00000000    0.00000000
C                  2.10058500    1.04912200    0.60571100
C                  2.10058500   -1.04912200   -0.60571100
C                  4.19883000    0.00000000    0.00000000
C                  3.49941500   -1.04912200   -0.60571100
C                  3.49941500    1.04912200    0.60571100
H                  4.04306600    1.86459900    1.07652700
H                  5.28613200    0.00000000    0.00000000
H                  4.04306600   -1.86459900   -1.07652700
F                  1.42558535    2.06162210    1.19027837
F                  1.42558535   -2.06162210   -1.19027837
