7
CF:2,180
C       1.498526      0.067578      0.000000
O       2.142766      1.098981      0.000000
O       2.070821     -1.169645      0.000000
C       3.518470     -1.172072      0.000000
H       3.804266     -2.225928      0.000000
H       3.898630     -0.662965      0.891816
H       3.898630     -0.662965     -0.891816
