17
CF:3,120
C      1.500912      0.000000     -0.000000
H      1.778334     -0.116340     -0.954373
C      2.086930     -1.186771      0.756399
H      1.684440     -2.028249      0.425747
H      1.882645     -1.103825      1.722505
C      3.603804     -1.219155      0.546289
H      3.991761     -1.975612      1.053506
H      3.801281     -1.358586     -0.412932
C      4.237647      0.083064      1.012257
H      5.212789      0.052914      0.847129
H      4.095827      0.189199      1.985947
C      3.631987      1.274800      0.276411
H      3.846198      1.209817     -0.686803
H      4.030310      2.112809      0.622718
C      2.111637      1.320211      0.457459
H      1.892811      1.477875      1.410258
H      1.733314      2.065002     -0.072945
