8
CF:3,120
N      1.01407    0.00000    0.00000
C      1.60376   -1.25957    0.12360
N      1.03181   -2.40041    0.02417
N      2.97336   -1.17864    0.36915
H      3.41405   -2.09228    0.31573
H      3.46153   -0.47950   -0.18510
H      1.40384    0.71697    0.60595
H      0.01545   -2.30196   -0.03335
