10
CF:3,120
C       1.699501     -0.003724     -0.000575
H       2.136715     -1.011173     -0.002126
C       2.187521      0.727475     -1.266173
H       3.282032      0.804549     -1.265431
H       1.872699      0.198119     -2.172851
H       1.774493      1.743059     -1.304491
C       2.188578      0.724072      1.266521
H       1.873570      0.192912      2.172084
H       3.283162      0.800075      1.265612
H       1.776606      1.739974      1.307350
