11
CF:2,90
C       1.401170      0.000000      0.000000
C       2.100585      1.049122      0.605711
C       2.100585     -1.049122     -0.605711
C       4.198830      0.000000      0.000000
C       3.499415     -1.049122     -0.605711
C       3.499415      1.049122      0.605711
H       1.556934      1.864599      1.076527
H       4.043066      1.864599      1.076527
H       5.286132      0.000000      0.000000
H       4.043066     -1.864599     -1.076527
H       1.556934     -1.864599     -1.076527
