13
CF:2,60
C       1.459777     -0.009217     -0.000013
C       2.077456     -1.418820      0.000715
H       3.170155     -1.333052      0.001370
H       1.777377     -1.985379      0.890184
H       1.778510     -1.985781     -0.888885
C       1.959763      0.734879     -1.259764
H       1.581937      1.762529     -1.289061
H       3.056649      0.770896     -1.261139
H       1.625748      0.220351     -2.168558
C       1.959108      0.736000      1.259287
H       3.055943      0.773235      1.260539
H       1.580052      1.763219      1.288074
H       1.625736      0.221561      2.168372
