7
CF:2,90
N       1.470000      0.000000     -0.000000
N       2.306567     -0.001996     -1.071411
N       3.738003     -0.001422     -0.593230
C       2.269649      0.002463      1.233474
C       3.594065      0.001835      0.869702
H       1.888927      0.004396      2.233448
H       4.412164      0.003496      1.559347
