26

C      0.01110   -1.41730    0.29430
C     -1.23350   -0.67880   -0.18870
C     -1.18360    0.77120    0.28330
C      0.06150    1.44620   -0.28410
C      1.30760    0.71040    0.19930
C      1.25500   -0.73950   -0.27250
H     -0.02660   -2.48360   -0.05350
H     -1.28460   -0.71220   -1.30680
H     -2.15120   -1.17790    0.21470
H     -2.09940    1.31340   -0.07270
C     -1.12970    0.80710    1.80760
H      0.02340    1.43310   -1.40310
H      0.09860    2.51480    0.04850
H      2.22290    1.20780   -0.21810
H      2.17240   -1.28310    0.06930
H      1.22910   -0.77380   -1.39150
C      0.06310   -1.37930    1.81860
C      0.11470    0.06980    2.29300
H      0.96840   -1.92960    2.18130
H     -0.84200   -1.88500    2.24180
C      1.35830    0.74600    1.72380
H      0.15310    0.09610    3.41430
H      2.27690    0.21740    2.08540
H      1.40800    1.80740    2.07710
H     -1.10310    1.86930    2.16120
H     -2.04660    0.32400    2.23150
