22
benzene_4-Cl.xyz 12=>Ph
C     -1.973824     -2.321752      0.001255
C     -2.365007     -1.290119      0.855176
C     -1.668229     -0.081929      0.854398
C     -0.578965      0.094615      0.000259
C     -0.187641     -0.936984     -0.853091
C     -0.885348     -2.145130     -0.852894
H     -3.223658     -1.429404      1.527900
H     -1.976892      0.731485      1.526991
H      0.670790     -0.798159     -1.526365
H     -0.576790     -2.958177     -1.525855
Cl      0.300118      1.619348     -0.000373
C     -2.743760     -3.655468      0.001886
C     -2.185094     -4.785283      0.608626
C     -4.001781     -3.737109     -0.604283
C     -4.142472     -6.078380      0.003030
C     -4.701137     -4.948565     -0.603710
C     -2.884450     -5.996739      0.609198
H     -1.207240     -4.721825      1.079797
H     -2.450201     -6.874938      1.080815
H     -4.686077     -7.020038      0.003475
H     -5.678991     -5.012024     -1.074881
H     -4.436030     -2.858910     -1.075899
