12
benzene_1-NO2_4-Cl.xyz 12=>H
C     -1.976953     -2.327171      0.001258
C     -2.368136     -1.295538      0.855179
C     -1.671358     -0.087348      0.854401
C     -0.582094      0.089196      0.000262
C     -0.190770     -0.942403     -0.853088
C     -0.888477     -2.150549     -0.852891
H     -3.226787     -1.434823      1.527903
H     -1.980021      0.726066      1.526994
H      0.667661     -0.803578     -1.526362
H     -0.579919     -2.963596     -1.525852
Cl      0.296989      1.613929     -0.000370
H     -2.521907     -3.271165      0.001704
