 14
 F:1-12-13;4-11
 C             -1.976956  -2.327177  0.001258  
 C             -2.368139  -1.295544  0.855179  
 C             -1.671361  -0.087354  0.854401  
 C             -0.582097  0.089190  0.000262  
 C             -0.190773  -0.942409  -0.853088  
 C             -0.888480  -2.150555  -0.852891  
 H             -3.226790  -1.434829  1.527903  
 H             -1.980024  0.726060  1.526994  
 H              0.667658  -0.803584  -1.526362  
 H             -0.579922  -2.963602  -1.525852  
 Cl             0.296986  1.613923  -0.000370  
 N             -2.711895  -3.600270  0.001860  
 O             -2.350938  -4.467521  -0.743797  
 O             -3.643112  -3.720845  0.747986  
