24

C     -4.28809    0.29868    1.55829
C     -4.29832   -1.09543    1.50806
C     -3.26257    1.01142    0.93673
C     -2.24729    0.33009    0.26510
C     -2.25745   -1.06404    0.21483
C     -3.28314   -1.77677    0.83629
H     -3.28778   -2.87588    0.80110
H     -1.45389   -1.60160   -0.30926
H     -5.10571   -1.65743    1.99933
H     -5.08807    0.83569    2.08810
H     -1.43767    0.89160   -0.22310
H     -3.25430    2.11026    0.97662
C     -0.66914   -1.01643    3.94583
H     -1.16894   -0.08108    4.23697
C     -1.24248   -2.24519    4.27403
C     -0.61310   -3.43172    3.89704
C      0.58969   -3.38969    3.19159
C      1.16321   -2.16106    2.86352
C      0.53394   -0.97454    3.24073
H      0.98438   -0.00590    2.98003
H      2.11107   -2.12793    2.30712
H     -2.19263   -2.27780    4.82663
H      1.08577   -4.32494    2.89438
H     -1.06544   -4.40014    4.15521
