14
benzene_1-NO2_4-Cl.xyz 12,11=>H
C     -1.97696   -2.32718    0.00126
C     -2.15141   -1.42056    1.04725
C     -1.45466   -0.21236    1.04663
C     -0.58207    0.08917    0.00027
C     -0.40734   -0.81748   -1.04520
C     -1.10513   -2.02558   -1.04492
H     -2.83940   -1.65830    1.87150
H     -1.59259    0.50257    1.87074
H      0.28030   -0.58013   -1.86999
H     -0.96737   -2.74009   -1.86932
Cl     0.29707    1.61387   -0.00011
N     -2.73689   -3.64357    0.00188
O     -2.11051   -4.66354    0.28491
O     -3.93352   -3.61139   -0.28068
