15
chlorotoluene.xyz
C      -1.236678     -0.396996      1.236678
C      -0.250151     -0.396996      0.250151
C       0.243083      0.810755     -0.243083
C      -0.251081      2.019264      0.249385
C      -1.237710      2.019186      1.235337
C      -1.730284      0.810980      1.729320
H      -1.625098     -1.349313      1.625735
H       0.139340     -1.349509     -0.137480
H       0.137927      2.971407     -0.139707
H      -1.627379      2.971467      1.623658
H      -2.507949      0.811163      2.506730
C       1.332655      0.810867     -1.331399
H       0.872132      0.823281     -2.297145
H       1.933899     -0.068886     -1.234246
Cl      2.346411      2.237647     -1.146476

