19 
comment line
C   -0.222801   -1.34952    -0.396599   H   C    0.875026	
O   0.288517   -1.987811   0.506784   H   O    -0.718374
C   -1.67159   -0.986998   -0.462589   H   CT   -0.28741
O   0.478592   -0.837947   -1.411906   H   OH   -0.738585
C   -1.891546   0.431136   0.139906   H   C    0.903226	
O   -0.893287   1.018998   0.65242	   H   O2   -0.827382	
O   -3.053803   0.865029   0.080009   H   O2   -0.83898	
H   -2.265863   -1.701909   0.115691   H   HC   0.058078	
H   -2.025591   -0.97359   -1.499171   H   HC   0.070388	
H   1.438847   -0.725577   -1.128016   H   HO   0.504013	
H   2.657024   -0.141018   0.486112   L   HW   0.478406	
O   2.736807   -0.100946   -0.484674   L   OW   -0.960087	
H   2.551475   0.845732   -0.649738   L   HW   0.481681	
H   0.817171   2.509848   -1.49905   L   HW   0.403683
O   1.226393   2.219263   -0.677689   L   OW   -0.86958	
H   0.478867   1.795978   -0.208613   L   HW   0.465897
H   1.118923   -0.835348   1.849471   L   HW   0.429939	
O   1.382778   0.085828   1.989248   L   OW   -0.873427	
H   0.616789   0.558861   1.615479   L   HW   0.443488	
