54
 F:2-9;2-22;9-29;
C       2.001839      0.000291     -2.896627
H      -0.450390      0.661257     -0.964650
C       1.446550     -1.279619     -2.652464
C       1.769151     -2.357395     -3.487933
C       2.644220     -2.142002     -4.535876
C       3.196429     -0.871295     -4.755864
H       3.335335      1.183658     -4.150663
C       2.891417      0.215617     -3.946572
C       0.618652      0.121127     -1.031379
C       0.596577     -1.171067     -1.514554
H       1.336229     -3.338441     -3.309911
H       2.909717     -2.960322     -5.198898
H       3.881710     -0.728081     -5.587104
H      -0.040872     -1.957903     -1.124390
N       1.502831      0.854880     -1.907752
C       1.724934      2.170851     -1.625867
O       1.381767      2.601868     -0.510021
C       2.362920      3.068966     -2.623744
H       3.440489      2.868647     -2.672110
H       1.940581      2.923224     -3.622340
H       2.220398      4.102081     -2.303717
O      -1.643892      1.549321     -1.123713
O      -1.032925      2.012102      0.983984
C      -1.823410      2.111200     -0.027870
C      -3.026440      2.981700      0.190340
H      -2.805910      4.014020     -0.083450
H      -3.871890      2.604920     -0.391520
H      -3.314010      2.935990      1.245610
Ir      0.812337      1.018257      0.969872
C       0.804185      0.794924      3.152565
C       2.768992      0.786420      1.884936
C       2.169173     -0.501247      1.750648
C       0.911896     -0.488159      2.488530
C       1.918195      1.600704      2.750969
C       2.743718     -1.660052      1.017140
C       4.047448      1.235710      1.272799
C       2.202160      3.004413      3.149909
C      -0.330657      1.221496      4.008798
C      -0.006287     -1.643850      2.671493
H      -0.017053     -2.290839      1.788676
H      -1.032813     -1.311851      2.852364
H       0.305867     -2.253583      3.528815
H      -0.450101      2.308091      4.007311
H      -0.165933      0.894789      5.042846
H      -1.272623      0.786896      3.661222
H       1.296228      3.517521      3.483614
H       2.616111      3.576717      2.312864
H       2.930820      3.034191      3.969696
H       4.006782      2.295944      1.001870
H       4.282423      0.660760      0.370477
H       4.878966      1.105535      1.976569
H       3.287585     -1.343812      0.120316
H       1.969649     -2.367209      0.705186
H       3.446299     -2.200392      1.663354
