12
E:1
C         -4.20339       -0.06691       -0.00131
C         -4.19394       -1.46592       -0.00065
C         -2.99654        0.64078       -0.00092
C         -1.78023       -0.05054        0.00013
C         -1.77078       -1.44955        0.00079
C         -2.97763       -2.15724        0.00040
H         -2.97032       -3.23955        0.00091
H         -0.82981       -1.98437        0.00161
H         -5.12759       -2.01341       -0.00096
H         -5.14436        0.46792       -0.00213
H         -0.84658        0.49695        0.00044
H         -3.00385        1.72310       -0.00143
