15
E:5,4
C    -1.04140000    0.76960000    0.07320000   
C    -1.04170000   -0.76920000    0.07320000   
C     0.41120000   -1.21010000   -0.19930000   
C     1.26640000   -0.00020000    0.25220000   
C     0.41170000    1.21000000   -0.19930000   
H    -1.69830000    1.14310000   -0.71230000   
H    -1.36900000    1.14300000    1.04340000   
H    -1.36950000   -1.14250000    1.04340000   
H    -1.69880000   -1.14240000   -0.71230000   
H     0.65870000   -2.09330000    0.38970000   
H     0.55770000   -1.40560000   -1.26160000   
H     1.39460000   -0.00030000    1.33460000   
H     2.23270000   -0.00040000   -0.25230000   
H     0.55820000    1.40540000   -1.26160000   
H     0.65950000    2.09300000    0.38970000   

