21

C     -3.39687    0.76221    0.28650
C     -2.39066   -0.34691   -0.05366
C     -0.97789    0.05976    0.39024
H     -2.39597   -0.52733   -1.15140
H     -2.68621   -1.28962    0.45473
C     -2.98525    2.08048   -0.38512
H     -3.43227    0.90413    1.38933
H     -4.41088    0.46673   -0.05842
C     -1.57248    2.48715    0.05878
H     -3.70761    2.88019   -0.11466
H     -3.00384    1.95424   -1.49026
C     -0.56627    1.37802   -0.28139
H     -0.95930    0.18600    1.49538
H      0.19540    1.66800    0.47583
H     -1.56717    2.66757    1.15652
H     -1.27693    3.42985   -0.44961
Cl     0.16636   -1.20703   -0.03820
C      0.11292    1.35568   -1.66335
H      1.05321    0.76677   -1.61405
H      0.35179    2.39146   -1.98504
H     -0.56479    0.89232   -2.41128
