57
K:5; 
C    -0.748790    -3.757790    -1.844980
C     0.604180    -3.819980    -1.847320
H    -1.495100    -4.467210    -2.166250
H     1.281250    -4.594660    -2.170870
C     0.021680    -1.779510    -1.022880
N     1.065760    -2.607600    -1.336810
N    -1.095260    -2.508570    -1.332990
C     2.536597    -2.259355    -1.176300
C     4.463264    -2.095047     0.463845
C     5.311665    -3.019441    -0.437128
C     4.895776    -2.826590    -1.912220
H     6.391083    -2.781105    -0.314033
H     5.164757    -4.080357    -0.137236
C     3.401388    -3.182510    -2.077161
H     3.107777    -3.063453    -3.143936
H     3.241803    -4.248605    -1.800796
C     2.968067    -2.449595     0.303326
H     2.359222    -1.797348     0.968353
H     2.801113    -3.503236     0.620152
C     4.691101    -0.623856     0.051848
H     4.764791    -2.233513     1.524875
C     5.123451    -1.355123    -2.323307
H     5.508297    -3.491068    -2.559666
C     4.274977    -0.430092    -1.423054
H     6.200578    -1.096551    -2.223133
H     4.840259    -1.210922    -3.389179
H     4.441120     0.628606    -1.718769
C     2.779434    -0.781547    -1.587084
H     4.094848     0.049861     0.705814
H     5.762971    -0.356385     0.180896
H     2.475245    -0.621670    -2.645531
H     2.167374    -0.100941    -0.954196
C    -2.527386    -2.023358    -1.178123
C    -4.531540    -1.932757     0.372450
C    -4.570884    -0.394712     0.234936
C    -4.037498     0.013340    -1.156122
H    -5.613883    -0.029948     0.362216
H    -3.950999     0.073246     1.031063
C    -2.580971    -0.477291    -1.313898
H    -2.190433    -0.164787    -2.307986
H    -1.943240    -0.000640    -0.536399
C    -3.075935    -2.427019     0.217514
H    -3.045484    -3.532934     0.337529
H    -2.446611    -1.983507     1.021043
C    -5.411871    -2.570584    -0.724931
H    -4.917304    -2.225142     1.373236
C    -4.918019    -0.625227    -2.252916
H    -4.068027     1.120274    -1.254431
C    -4.878807    -2.163362    -2.116353
H    -5.965239    -0.263274    -2.155877
H    -4.549492    -0.324183    -3.258220
H    -5.514273    -2.621563    -2.905104
C    -3.423850    -2.658047    -2.275917
H    -5.400945    -3.678169    -0.623834
H    -6.465098    -2.232286    -0.609322
H    -3.047637    -2.382620    -3.286366
H    -3.399307    -3.767895    -2.198295
