24
K:4,13; 
C       0.903816        0.000000        2.400507  
C       3.177037        0.000000        2.550514  
C       2.813944        0.000000        1.201250  
N       1.427688        0.000000        1.117375  
H       3.690859       -0.903215        2.876592  
H       3.145268       -1.094449        0.829914  
O       1.966020        0.000000        3.310760  
H       3.690859        0.903215        2.876592  
C       3.224469        1.382737        0.698761  
C      -0.903816        0.000000        2.400507  
C      -3.177037        0.000000        2.550514  
C      -2.813944        0.000000        1.201250  
N      -1.427688        0.000000        1.117375  
H      -3.690859        0.903215        2.876592  
H      -3.145268        1.094449        0.829914  
O      -1.966020        0.000000        3.310760  
H      -3.690859       -0.903215        2.876592  
C      -3.245064       -1.377146        0.700658  
H       2.346407        1.996293        0.467175  
H       3.810079        1.916391        1.459891  
H       3.843602        1.308433       -0.202477  
H      -2.377535       -1.986785        0.423514  
H      -3.796395       -1.920596        1.480235  
H      -3.903118       -1.292852       -0.171658  
