20
 K:1,11;
N     -0.849888     -1.545396     -0.994456
C     -0.496569     -2.750066     -0.548988
C     -1.731028     -1.463056     -1.983569
H     -1.962653     -0.604751     -2.318839
C     -2.315906     -2.566591     -2.537900
H     -2.950606     -2.477091     -3.239829
C     -1.044791     -3.891191     -1.059907
H     -0.784960     -4.740546     -0.722634
C     -1.973340     -3.799901     -2.062378
H     -2.372629     -4.583921     -2.421691
N      0.849888     -1.545396      0.994456
C      0.496569     -2.750066      0.548987
C      1.731027     -1.463056      1.983569
H      1.962653     -0.604751      2.318838
C      2.315905     -2.566591      2.537899
H      2.950606     -2.477091      3.239829
C      1.044790     -3.891191      1.059907
H      0.784960     -4.740546      0.722633
C      1.973340     -3.799901      2.062377
H      2.372628     -4.583921      2.421690
