20
 K:1,3,11,13;
C      0.336790     -1.349790     -1.593340
H      0.546290     -0.750730     -2.479950
C     -0.979780     -1.469620     -1.178220
H     -1.737540     -0.962820     -1.769240
C     -1.497820     -2.606610     -0.309750
H     -0.938680     -3.520700     -0.541400
H     -2.537640     -2.816690     -0.586030
C     -1.437420     -2.312380      1.205750
H     -2.389250     -1.880920      1.524700
H     -1.328130     -3.257030      1.761290
C     -0.336780     -1.349830      1.593290
H     -0.546290     -0.750790      2.479920
C      0.979800     -1.469630      1.178170
H      1.737550     -0.962820      1.769220
C      1.497860     -2.606580      0.309680
H      0.938730     -3.520690      0.541310
H      2.537680     -2.816660      0.585950
C      1.437450     -2.312330     -1.205810
H      2.389270     -1.880840     -1.524750
H      1.328190     -3.256960     -1.761370
