10
K:1,2,3,4,5
C      1.460379     -1.319856      0.816938
C      1.002268     -0.497940      1.922314
C     -0.379493     -0.687094      2.079612
C     -0.824134     -1.638063      1.072905
C      0.315960     -2.078359      0.349334
H      2.492673     -1.468554      0.500145
H      1.635360      0.185003      2.488780
H     -1.038260     -0.200477      2.798868
H     -1.850403     -1.995699      0.989438
H      0.330140     -2.859709     -0.410528
