28
 K:1,2;
N     -0.842005      1.124312      1.442571
N      0.300995     -1.287019      1.530333
C     -1.399252      2.334454      1.354988
C     -1.742398      3.064023      2.511402
H     -2.123437      3.930917      2.428865
C     -1.528181      2.527554      3.754678
H     -1.735124      3.029541      4.533730
C     -1.001084      1.229452      3.869292
C     -0.800710      0.548762      5.119596
H     -1.039446      0.983600      5.930365
C     -0.278659     -0.698040      5.164468
H     -0.173662     -1.133725      6.002450
C      0.119039     -1.369897      3.959578
C      0.706905     -2.658562      3.926599
H      0.848152     -3.138529      4.733764
C      1.069525     -3.207856      2.729818
H      1.458190     -4.073782      2.704588
C      0.868447     -2.493047      1.529613
C     -0.659228      0.575864      2.676295
C     -0.067609     -0.737967      2.720447
C     -1.630362      2.877941     -0.023806
C      1.281866     -3.025887      0.192627
H     -2.085896      2.203179     -0.569846
H     -0.769622      3.103345     -0.434687
H     -2.186787      3.682887      0.032059
H      0.487995     -3.156678     -0.366207
H      1.742092     -3.882618      0.311386
H      1.886390     -2.387181     -0.240059
