67
 K:3;
C     -1.323245      1.456536     -3.635779
C      0.084363      2.058683     -3.553058
C     -0.384023      0.906814     -1.546730
N      0.589010      1.494038     -2.287584
N     -1.546940      0.977819     -2.253696
C      1.988167      1.590602     -1.953546
C     -2.771986      0.297980     -1.917108
H      0.726024      1.767476     -4.389181
H      0.067153      3.154862     -3.499000
H     -1.375067      0.609600     -4.332744
H     -2.078882      2.186948     -3.929006
C      2.467544      2.744281     -1.294526
C      2.860013      0.560007     -2.373589
C      3.841879      2.835626     -1.043261
C      4.224021      0.700499     -2.090577
C      4.713946      1.823189     -1.431371
H      4.234403      3.712925     -0.537175
H      4.912000     -0.082931     -2.394761
C      1.555141      3.893669     -0.880387
H      0.519313      3.566483     -1.017418
C      2.386224     -0.664602     -3.149794
H      1.293339     -0.633095     -3.193094
C      1.780996      5.132173     -1.772943
H      2.801718      5.516961     -1.661695
H      1.088110      5.936849     -1.498570
H      1.631868      4.901142     -2.834091
C      1.723389      4.261687      0.605601
H      0.993250      5.027877      0.891352
H      2.721112      4.665602      0.812235
H      1.571052      3.388312      1.246510
C      2.769682     -1.984582     -2.453509
H      2.358019     -2.026255     -1.440519
H      3.858738     -2.106222     -2.400018
H      2.376007     -2.832568     -3.028279
C      2.909791     -0.629222     -4.601342
H      2.620192      0.292864     -5.120635
H      2.513891     -1.478720     -5.170676
H      4.004155     -0.691591     -4.629572
H      5.777138      1.911635     -1.223506
C     -2.834330     -1.114080     -1.983595
C     -3.912811      1.072112     -1.590324
C     -4.033499     -1.734210     -1.606765
C     -5.089002      0.398274     -1.241130
C     -5.145586     -0.992510     -1.224392
H     -4.098837     -2.817913     -1.634673
H     -5.974278      0.970131     -0.979813
C     -3.927599      2.597321     -1.691733
H     -2.887383      2.940199     -1.714446
C     -1.716315     -1.979980     -2.565090
H     -0.842338     -1.346619     -2.739616
C     -2.160671     -2.536851     -3.936907
H     -2.471984     -1.737251     -4.620186
H     -3.006441     -3.226601     -3.831604
H     -1.337522     -3.087605     -4.407246
C     -1.256198     -3.118815     -1.634756
H     -2.097663     -3.729749     -1.287624
H     -0.706578     -2.725277     -0.774293
H     -0.572743     -3.781374     -2.179717
C     -4.617042      3.298276     -0.506052
H     -5.691514      3.083806     -0.476419
H     -4.507222      4.384852     -0.601886
H     -4.187256      2.998313      0.452546
C     -4.616133      3.039735     -3.003756
H     -4.552447      4.127750     -3.126827
H     -5.677678      2.765345     -2.990634
H     -4.172486      2.569077     -3.887499
H     -6.064563     -1.496660     -0.936931
