15
 K:1,2,4,5;
C     -2.017031      0.652187      0.969063
C     -1.187639      1.765595      0.962747
C     -0.534768      1.816707      2.350987
C      0.377576      0.577591      2.331227
C     -0.443981     -0.508189      2.326854
C     -1.871666      0.016743      2.355847
C     -1.688229      1.272435      3.222059
H     -2.718211      0.549963      0.452381
H     -1.256460      2.511551      0.437803
H     -0.067174      2.649691      2.608195
H      1.322156      0.577591      2.442986
H     -0.177899     -1.287299      2.483478
H     -2.536449     -0.568971      2.580660
H     -2.472071      1.889921      3.265791
H     -1.385371      1.074895      4.117751
