32
K:2;
O                 -0.58658930   -0.25070000    1.45363590
P                  0.61397270   -0.22269300    0.27682090
O                 -0.29651330    0.20840300   -1.06653010
C                 -2.72151530    0.03545400    0.32904990
C                 -1.87819030   -0.70737200    1.16198090
C                 -1.03665430    1.38889700   -0.90553410
C                 -2.25357230    1.33796300   -0.22396310
C                 -2.43186030    3.79538900   -0.60149210
C                 -2.96648230    2.57717600   -0.02936210
C                 -1.20007630    3.75999800   -1.31763810
C                 -0.49976730    2.57596800   -1.45754110
H                 -0.79469130    4.68986200   -1.72011510
C                 -4.01463630   -0.52150000    0.01422890
C                 -3.55192730   -2.41025800    1.55529790
C                 -2.28701330   -1.90665200    1.79686290
H                 -3.88322730   -3.33011900    2.04140290
C                 -4.43398030   -1.75160700    0.64930590
H                 -1.59021330   -2.40745900    2.46858290
H                  0.46784470    2.54008300   -1.95554810
N                  1.05566370   -1.76454500   -0.17095110
C                  2.47448470   -2.18391000    0.00204290
H                  2.63588352   -3.11317235   -0.50325097
C                  0.11187870   -2.72059600   -0.83229010
H                 -0.62966889   -2.17204197   -1.37459596
H                  0.65512885   -3.34884255   -1.50689038
H                 -0.36423724   -3.32408194   -0.08796602
H                  3.12003169   -1.43685527   -0.41036262
H                  2.68671142   -2.30294213    1.04400795
H                 -5.39896259   -2.16414808    0.44069372
H                 -4.65856003   -0.02839625   -0.68370442
H                 -3.87823100    2.59583600    0.53033971
H                 -2.95983394    4.71898376   -0.48696461
