20
 K:1,2;
O     -0.938496     -1.630847     -1.237852
O     -0.343964     -1.270457      1.194208
C     -0.888849     -2.911605     -0.519289
C     -1.066552     -2.525945      0.986751
C      0.473245     -3.524219     -0.794942
C     -1.983239     -3.820064     -1.059109
C     -2.522108     -2.247645      1.367209
C     -0.465507     -3.547397      1.942921
H      1.159504     -2.946212     -0.453247
H      0.589201     -3.633511     -1.741062
H      0.532094     -4.380365     -0.364234
H     -2.841178     -3.429092     -0.879647
H     -1.926896     -4.678141     -0.631273
H     -1.871681     -3.928068     -2.006665
H     -2.893570     -1.602196      0.762783
H     -2.558005     -1.904801      2.263080
H     -3.027629     -3.062103      1.316960
H      0.448012     -3.715601      1.698853
H     -0.965367     -4.365879      1.892672
H     -0.500145     -3.205357      2.838792
