34
 K:1;
P      -1.710281     -0.480392      1.525592
C      -1.138967     -0.148770      3.255995
C      -3.324519      0.440462      1.472172
C      -2.246536     -2.251302      1.585155
C      -0.707453     -1.171174      4.112580
C      -1.000815      1.184878      3.674179
C      -0.036466      0.460034      5.774376
C      -0.462100      1.486293      4.923078
C      -0.159634     -0.868409      5.363248
H      -0.804783     -2.211406      3.812504
H       0.164525     -1.676126      6.014592
H       0.391111      0.696999      6.744592
H      -0.368351      2.525247      5.228551
H      -1.313577      1.992988      3.016080
C      -4.169757      0.556622      2.588815
C      -3.723221      1.030538      0.263543
C      -5.767209      1.827986      1.281979
C      -4.936799      1.718815      0.166225
C      -5.380236      1.244278      2.492629
H      -3.879163      0.115305      3.537936
H      -6.021952      1.327112      3.365945
H      -6.708996      2.365944      1.211862
H      -5.228075      2.171536     -0.778142
H      -3.068703      0.959953     -0.601277
C      -1.271512     -3.246242      1.384783
C      -3.579290     -2.644257      1.769859
C      -2.952679     -4.977855      1.567418
C      -3.929141     -3.996388      1.756313
C      -1.619501     -4.598150      1.385170
H      -0.239656     -2.952287      1.214263
H      -0.850458     -5.351471      1.234180
H      -3.228314     -6.028973      1.559981
H      -4.969300     -4.279814      1.895066
H      -4.352059     -1.894597      1.920574
