18
K:7,12
C        0.6071080        0.4325380        2.8541200
N        1.1133800        0.9490490        3.9754810
C        2.4332600        0.8481600        4.1245060
C        3.2472990        0.2468160        3.1740780
H        4.3238000        0.1696900        3.3037210
C        2.6041990       -0.2509080        2.0448540
N        1.2892940       -0.1655510        1.8742740
H        2.8485960        1.2667260        5.0428560
H        3.1640710       -0.7386200        1.2448970
C       -0.8637250        0.5223100        2.6769200
O       -1.5294370        1.2099270        3.6338800
N       -1.5195740       -0.0002030        1.7199760
C       -2.9035960        1.2279370        3.2138990
H       -3.5186980        0.8822550        4.0513820
H       -3.1707850        2.2669180        2.9826240
C       -2.9229470        0.3036870        1.9851540
H       -3.4638910       -0.6361390        2.1648810
H       -3.3785580        0.7722200        1.1037840
