80
K:1,16;
N          1.6952830         -0.0669380          0.9399490
N          3.6313470          0.0250680          0.3319100
C          2.6162470         -0.7682450          0.3693340
C          2.1423790          1.0909110          1.2056620
C          3.3955810          1.1924860          0.7684100
C          2.4911020         -2.0970600          0.0567600
C          3.3643990         -2.8253880         -0.6853980
C          3.4057450         -4.1755120         -0.6613790
C          2.4730240         -4.8475760          0.0276700
C          1.4325230         -4.1597000          0.5076480
C          1.4129000         -2.8167190          0.4659240
C          4.0997020         -2.2545340         -1.6593360
C          4.9730680         -2.9346790         -2.4172380
C          5.1286100         -4.2509520         -2.2318290
C          4.3178270         -4.8720640         -1.3651370
P         -0.1384210         -2.0642440          1.1384130
C         -0.0468890         -1.8956440          2.9583290
C         -1.6386530         -2.9924440          0.6519460
C          5.0781280         -0.2474870          0.0790810
C          1.4884620          2.1367500          2.1066740
C          4.3969120          2.3333040          0.9389340
H          2.4579070         -5.9496510          0.0725050
H          0.5959930         -4.7350810          0.9378140
H          3.9362590         -1.2003470         -1.9273720
H          5.5432930         -2.4201430         -3.2089150
H          5.8389070         -4.8241530         -2.8500520
H          4.3698590         -5.9727930         -1.3056820
C          0.6871240         -0.8498770          3.5278210
C         -0.7109370         -2.8125340          3.7799600
C          0.0930410         -1.6378910          5.7405740
C         -0.6409720         -2.6836580          5.1710820
C          0.7570890         -0.7210010          4.9189430
H          1.2032850         -0.1371830          2.8891730
H          1.3276340          0.0918680          5.3616060
H          0.1474250         -1.5377160          6.8218840
H         -1.1571330         -3.3963520          5.8097300
H         -1.2814820         -3.6254030          3.3372970
C         -2.9051760         -2.4912670          0.9704810
C         -1.5188890         -4.2031260         -0.0384380
C         -3.9321710         -4.4114530         -0.0917520
C         -2.6656480         -4.9126300         -0.4102870
C         -4.0519350         -3.2007710          0.5986320
H         -2.9982680         -1.5502100          1.5071130
H         -5.0363960         -2.8112090          0.8462270
H         -4.8235400         -4.9629470         -0.3807880
H         -2.5725550         -5.8536870         -0.9469190
H         -0.5344270         -4.5926890         -0.2860340
H          5.7129050          0.5345020          0.5651850
H          5.3523380         -0.1115610         -0.9861240
C          5.6165080         -1.5006620          0.7633300
C          6.6175830         -2.1904140          0.1800500
C          7.0932200         -3.3247640          0.7273520
C          6.5805370         -3.7775500          1.8857950
C          5.6075600         -3.0778910          2.4976740
C          5.1362860         -1.9440040          1.9436470
F          7.1486560         -1.7539780         -0.9542230
F          8.0670610         -3.9957470          0.1251110
F          7.0442870         -4.8955600          2.4298260
F          5.1147500         -3.5068950          3.6532060
F          4.1999100         -1.2711600          2.5976550
C          0.2841390          2.7359280          1.7228550
C          2.0939440          2.4953230          3.3156160
C          0.2907820          4.0522530          3.7569200
C          1.4951040          3.4530750          4.1407390
C         -0.3147010          3.6936790          2.5479780
H         -0.1864990          2.4572110          0.7831510
H         -1.2508140          4.1594170          2.2496370
F         -0.3470880          5.0724260          4.6358210
H          1.9657430          3.7317920          5.0804420
H          3.0300580          2.0295860          3.6139560
C          4.2859070          3.4847680          0.1524650
C          5.4249110          2.2265710          1.8815630
C          6.2308980          4.4227660          1.2512560
C          6.3419040          3.2713030          2.0377240
C          5.2029000          4.5294990          0.3086260
H          3.4868490          3.5677310         -0.5802360
H          5.1166150          5.4245250         -0.3026920
F          7.2076570          5.5355880          1.4175950
H          7.1409620          3.1883390          2.7704250
H          5.5111960          1.3315450          2.4928810
