75
 K:1;
C     -1.404317      1.404317      0.000000
C     -2.936068      2.970397      0.774008
C     -4.285657      2.960532      1.452177
C     -1.910034      1.255429      2.428449
N     -2.118634      1.769959      1.062070
H     -2.484277      3.746926      1.029576
C     -2.970397      2.936068     -0.774008
C     -2.960532      4.285657     -1.452177
C     -1.255429      1.910034     -2.428449
N     -1.769959      2.118634     -1.062070
H     -3.746926      2.484277     -1.029576
C     -4.609737      3.994195      2.333706
C     -5.189766      1.929237      1.244984
C     -6.409012      1.923976      1.926622
C     -5.827668      3.971836      3.004026
C     -6.707576      2.947248      2.805230
H     -3.957368      4.628150      2.464412
H     -4.983271      1.195322      0.660827
H     -7.035076      1.234780      1.770725
H     -5.996021      4.614998      3.479384
H     -7.495417      2.878855      3.285882
C     -1.760884      2.358669      3.452732
C     -0.728536      3.286585      3.348679
C     -2.666966      2.429956      4.529223
C     -3.787699      1.438645      4.721630
C     -2.527680      3.454938      5.458398
C     -0.635021      4.304596      4.295378
C      0.318542      3.210300      2.258679
C     -1.526767      4.400610      5.351972
C     -1.389980      5.500168      6.385381
H     -1.852952      5.245007      7.186954
H     -0.461407      5.639585      6.582717
H     -1.770090      6.311683      6.040546
H     -3.062991      3.510179      6.109915
H      0.067328      4.904355      4.251566
H     -1.155864      0.761286      2.382264
H     -2.589497      0.708676      2.683470
H     -3.404959      0.537692      4.837549
H     -4.286183      1.734578      5.496550
H     -4.378251      1.326848      3.857260
H     -0.037893      3.497027      1.496902
H      1.145841      3.720621      2.398694
H      0.527669      2.365903      2.062804
C     -3.994195      4.609737     -2.333706
C     -1.929237      5.189766     -1.244984
C     -1.923976      6.409012     -1.926622
C     -3.971836      5.827668     -3.004026
C     -2.947248      6.707576     -2.805230
H     -4.628150      3.957368     -2.464412
H     -1.195322      4.983271     -0.660827
H     -1.234780      7.035076     -1.770725
H     -4.614998      5.996021     -3.479384
H     -2.878855      7.495417     -3.285882
C     -2.358669      1.760884     -3.452732
C     -3.286585      0.728536     -3.348679
C     -2.429956      2.666966     -4.529223
C     -1.438645      3.787699     -4.721630
C     -3.454938      2.527680     -5.458398
C     -4.304596      0.635021     -4.295378
C     -3.210300     -0.318542     -2.258679
C     -4.400610      1.526767     -5.351972
C     -5.500168      1.389980     -6.385381
H     -5.245007      1.852952     -7.186954
H     -5.639585      0.461407     -6.582717
H     -6.311683      1.770090     -6.040546
H     -3.510179      3.062991     -6.109915
H     -4.904355     -0.067328     -4.251566
H     -0.761286      1.155864     -2.382264
H     -0.708676      2.589497     -2.683470
H     -0.537692      3.404959     -4.837549
H     -1.734578      4.286183     -5.496550
H     -1.326848      4.378251     -3.857260
H     -3.497027      0.037893     -1.496902
H     -3.720621     -1.145841     -2.398694
H     -2.365903     -0.527669     -2.062804
