83
 K:1,16,39,40; C:5 L:6-83
 H         -2.6613780          3.5461510         -1.1407490
 H         -3.5687220          2.8311410          0.8278170
 H          2.8039140          2.6595420          0.1178190
 H          2.4433470          2.0134790         -1.4334900
Rh         -2.9108460          2.1133650         -0.4530870
 N         -1.2137080          2.0581020          0.4925830
 N          0.7223560          2.1501080         -0.1154560
 C         -0.2927440          1.3567950         -0.0780320
 C         -0.7666120          3.2159510          0.7582960
 C          0.4865900          3.3175260          0.3210440
 C         -0.4178890          0.0279800         -0.3906060
 C          0.4554080         -0.7003480         -1.1327640
 C          0.4967540         -2.0504720         -1.1087450
 C         -0.4359670         -2.7225360         -0.4196960
 C         -1.4764680         -2.0346600          0.0602820
 C         -1.4960910         -0.6916790          0.0185580
 C          1.1907110         -0.1294940         -2.1067020
 C          2.0640770         -0.8096390         -2.8646040
 C          2.2196190         -2.1259120         -2.6791950
 C          1.4088360         -2.7470240         -1.8125030
 P         -3.0474120          0.0607960          0.6910470
 C         -2.9558800          0.2293960          2.5109630
 C         -4.5476440         -0.8674040          0.2045800
 C          2.1691370          1.8775530         -0.3682850
 C         -1.4205290          4.2617900          1.6593080
 C          1.4879210          4.4583440          0.4915680
 H         -0.4510840         -3.8246110         -0.3748610
 H         -2.3129980         -2.6100410          0.4904480
 H          1.0272680          0.9246930         -2.3747380
 H          2.6343020         -0.2951030         -3.6562810
 H          2.9299160         -2.6991130         -3.2974180
 H          1.4608680         -3.8477530         -1.7530480
 C         -2.2218670          1.2751630          3.0804550
 C         -3.6199280         -0.6874940          3.3325940
 C         -2.8159500          0.4871490          5.2932080
 C         -3.5499630         -0.5586180          4.7237160
 C         -2.1519020          1.4040390          4.4715770
 H         -1.7057060          1.9878570          2.4418070
 H         -1.5813570          2.2169080          4.9142400
 H         -2.7615660          0.5873240          6.3745180
 H         -4.0661240         -1.2713120          5.3623640
 H         -4.1904730         -1.5003630          2.8899310
 C         -5.8141670         -0.3662270          0.5231150
 C         -4.4278800         -2.0780860         -0.4858040
 C         -6.8411620         -2.2864130         -0.5391180
 C         -5.5746390         -2.7875900         -0.8576530
 C         -6.9609260         -1.0757310          0.1512660
 H         -5.9072590          0.5748300          1.0597470
 H         -7.9453870         -0.6861690          0.3988610
 H         -7.7325310         -2.8379070         -0.8281540
 H         -5.4815460         -3.7286470         -1.3942850
 H         -3.4434180         -2.4676490         -0.7334000
 C          2.7075170          0.6243780          0.3159640
 C          3.7085920         -0.0653740         -0.2673160
 C          4.1842290         -1.1997240          0.2799860
 C          3.6715460         -1.6525100          1.4384290
 C          2.6985690         -0.9528510          2.0503080
 C          2.2272950          0.1810360          1.4962810
 F          4.2396650          0.3710620         -1.4015890
 F          5.1580700         -1.8707070         -0.3222550
 F          4.1352960         -2.7705200          1.9824600
 F          2.2057590         -1.3818550          3.2058400
 F          1.2909190          0.8538800          2.1502890
 C         -2.6248520          4.8609680          1.2754890
 C         -0.8150470          4.6203630          2.8682500
 C         -2.6182090          6.1772930          3.3095540
 C         -1.4138870          5.5781150          3.6933730
 C         -3.2236920          5.8187190          2.1006120
 H         -3.0954900          4.5822510          0.3357850
 H         -4.1598050          6.2844570          1.8022710
 H         -3.0836840          6.9217470          3.9509170
 H         -0.9432480          5.8568320          4.6330760
 H          0.1210670          4.1546260          3.1665900
 C          1.3769160          5.6098080         -0.2949010
 C          2.5159200          4.3516110          1.4341970
 C          3.3219070          6.5478060          0.8038900
 C          3.4329130          5.3963430          1.5903580
 C          2.2939090          6.6545390         -0.1387400
 H          0.5778580          5.6927710         -1.0276020
 H          2.2076240          7.5495650         -0.7500580
 H          4.0346800          7.3598690          0.9252730
 H          4.2319710          5.3133790          2.3230590
 H          2.6022050          3.4565850          2.0455150
