61
 K:1,2;
P      0.049949     -1.615101      1.648680
P     -2.230318      0.023593     -0.117960
C     -1.504221     -3.173324      3.408698
C     -1.551432     -1.821767      2.636276
H     -1.575037     -1.090207      3.314904
C     -2.826115     -1.733980      1.830750
H     -3.572985     -2.075984      2.387998
H     -2.747746     -2.328372      1.041777
C     -3.184915     -0.345845      1.350745
H     -4.160284     -0.323898      1.113502
C     -2.882768      0.799047      2.360411
C      0.444628     -3.100168      0.843154
C      1.432272     -1.399291      2.724553
C     -2.900708      1.590960     -0.637690
C     -2.920536     -1.231032     -1.352732
H     -2.230318     -3.208073      4.070774
H     -1.616582     -3.904884      2.763174
H     -0.644046     -3.266598      3.866634
H     -3.127318      0.533856      3.270766
H     -1.936669      1.038632      2.327308
H     -3.426633      1.572671      2.090064
C      0.478620     -3.259283     -0.536171
H      0.281280     -2.533209     -1.115488
C      0.809093     -4.512079     -1.038246
H      0.807205     -4.539513     -1.987221
C      1.149009     -5.731955     -0.464446
H      1.352014     -6.533014     -0.927900
C      1.120683     -5.565525      0.920396
H      1.337851     -6.286112      1.499712
C      0.771325     -4.320045      1.433505
H      0.742999     -4.298098      2.387998
C      2.565324     -2.202178      2.807313
H      2.666355     -2.966659      2.255583
C      3.537860     -1.843714      3.734219
H      4.332885     -2.355806      3.855600
C      3.292366     -0.696994      4.479055
H      3.968420     -0.440948      5.091475
C      2.168756      0.118696      4.440433
H      2.067725      0.881347      4.992163
C      1.205662     -0.278176      3.513527
H      0.404027      0.215627      3.419733
C     -2.220876      2.768772     -0.370652
H     -1.392804      2.708418      0.087284
C     -2.667488      4.027055     -0.734794
H     -2.166112      4.804338     -0.519619
C     -3.868523      4.122158     -1.429974
H     -4.200885      4.963452     -1.722391
C     -4.570071      2.951662     -1.683770
H     -5.403808      3.012016     -2.136188
C     -4.109296      1.693379     -1.314110
H     -4.614449      0.916096     -1.518251
C     -4.251872     -1.594984     -1.203764
H     -4.791960     -1.231032     -0.514102
C     -4.742861     -2.518578     -2.114119
H     -5.645526     -2.811202     -2.064463
C     -3.902514     -3.010552     -3.101716
H     -4.286808     -3.634207     -3.703101
C     -2.561736     -2.708784     -3.327925
H     -2.015983     -3.072735     -4.017587
C     -2.155726     -1.787018     -2.373432
H     -1.254950     -1.501710     -2.428605
