60
 K:1,2;
P      0.979689      1.555127     -1.261670
P      1.754497      0.181646      1.345047
C      2.599741      1.995768     -0.537126
C      2.881836      1.462203      0.705214
C      4.063863      1.824907      1.366755
H      4.263752      1.463701      2.221807
C      4.934375      2.706188      0.768483
H      5.724412      2.980465      1.221157
C      4.654876      3.199286     -0.512772
H      5.282233      3.773319     -0.938974
C      3.498809      2.872553     -1.156840
H      3.305842      3.233758     -2.013745
C      1.184943      1.118982     -3.048544
H      1.892775      1.733481     -3.398241
C     -0.121690      1.616577     -3.635962
H     -0.876249      1.044043     -3.342650
H     -0.083616      1.610582     -4.626551
C     -0.293889      3.026927     -3.118960
H      0.354236      3.627937     -3.567663
H     -1.206801      3.349164     -3.324119
C     -0.060252      3.056903     -1.592308
H     -0.945475      2.914519     -1.148104
C      1.647305     -0.291892     -3.457514
C      0.456591      4.445865     -1.173669
C      2.728674     -1.389972      1.679127
H      2.110835     -2.160344      1.525588
C      2.964041     -1.291053      3.188042
H      3.748886     -0.717021      3.365406
H      3.150085     -2.191819      3.556006
C      1.738748     -0.706530      3.865730
H      1.000630     -1.364493      3.852494
H      1.948155     -0.493703      4.810788
C      1.312145      0.577923      3.121597
H      1.896236      1.328811      3.431586
C      3.989531     -1.601494      0.820583
C     -0.160693      0.972066      3.338386
H      4.164447     -2.666498      0.630197
H      4.879012     -1.205512      1.329570
C      3.868260     -0.877359     -0.533124
H      4.842735     -0.602387     -0.879082
H      3.270447      0.002147     -0.414847
H      3.407336     -1.528704     -1.246004
H     -0.695026      0.205899      3.911582
H     -0.679117      1.087989      2.376698
C     -0.272908      2.311078      4.090752
H     -1.178952      2.804646      3.807249
H      0.563435      2.930704      3.842773
H     -0.281173      2.128236      5.144982
H     -0.054919      4.803310     -0.272744
H      0.281111      5.183364     -1.968872
C      1.970868      4.414817     -0.895097
H      2.391192      5.377027     -1.100959
H      2.433911      3.681776     -1.522107
H      2.139627      4.164077      0.131329
H      2.466751     -0.640374     -2.818652
H      2.010068     -0.298217     -4.494532
C      0.491055     -1.304769     -3.363875
H      0.644496     -2.088089     -4.076452
H     -0.434477     -0.809732     -3.571787
H      0.459780     -1.720238     -2.378326
