44
 K:1,2;
P      1.738926      1.925468     -0.009893
P     -1.959927      1.619904     -0.247656
C      0.452203      3.186946     -0.551797
C     -0.893686      3.106516      0.192526
C      2.716813      2.839322      1.341341
C      3.079473      2.258027     -1.323113
C     -3.344039      1.830337      1.045465
C     -3.062862      2.264643     -1.656582
H      3.250844      2.034806      1.865729
H     -3.458885      1.349044     -2.117299
H     -3.082009      2.714896      1.640478
H      2.683459      3.043453     -1.979942
C     -4.236384      2.986836     -0.971026
H     -3.917848      3.987659     -0.648317
H     -5.076694      3.125715     -1.663663
C     -4.627753      2.145540      0.247256
H     -5.085403      1.206228     -0.093312
H     -5.368556      2.648133      0.881267
C      4.291898      2.831373     -0.557794
H      4.891251      2.004498     -0.151850
H      4.946952      3.397556     -1.231367
C      3.764399      3.686813      0.597682
H      4.567780      4.008214      1.273281
H      3.292484      4.597707      0.204209
C      1.894720      3.610351      2.374835
C      3.418157      1.033652     -2.177451
C     -3.488488      0.633765      1.989416
C     -2.367942      3.078701     -2.748749
H     -1.465295      4.028694      0.029419
H     -0.727289      3.039032      1.273534
H      0.868721      4.197829     -0.460243
H      0.305048      3.014606     -1.623928
H      0.905446      3.164522      2.525051
H      2.405602      3.605363      3.345810
H      1.753284      4.657549      2.087066
H      2.549956      0.378747     -2.310662
H      3.757941      1.336966     -3.175973
H      4.217408      0.437155     -1.721890
H     -2.605628     -0.014455      1.961340
H     -3.618016      0.968770      3.026475
H     -4.359054      0.020877      1.727441
H     -1.319435      2.786256     -2.871638
H     -2.865780      2.921122     -3.713707
H     -2.396742      4.153333     -2.539521
