66
K:1,16;
N     -1.697127     -0.055337      0.945636
N     -3.633191      0.036669      0.337597
C     -2.618091     -0.756644      0.375021
C     -2.144223      1.102512      1.211349
C     -3.397425      1.204087      0.774097
C     -2.492946     -2.085459      0.062447
C     -3.366243     -2.813787     -0.679711
C     -3.407589     -4.163911     -0.655692
C     -2.474868     -4.835975      0.033357
C     -1.434367     -4.148099      0.513335
C     -1.414744     -2.805118      0.471611
C     -4.101546     -2.242933     -1.653649
C     -4.974912     -2.923078     -2.411551
C     -5.130454     -4.239351     -2.226142
C     -4.319671     -4.860463     -1.359450
P      0.136577     -2.052643      1.144100
C      0.045045     -1.884043      2.964016
C      1.636809     -2.980843      0.657633
C     -5.079972     -0.235886      0.084768
C     -1.465277      2.166175      2.094102
C     -4.402968      2.362115      0.913579
H     -2.459751     -5.938050      0.078192
H     -0.597837     -4.723480      0.943501
H     -3.938103     -1.188746     -1.921685
H     -5.545137     -2.408542     -3.203228
H     -5.840751     -4.812552     -2.844365
H     -4.371703     -5.961192     -1.299995
C     -0.688968     -0.838276      3.533508
C      0.709093     -2.800933      3.785647
C     -0.094885     -1.626290      5.746261
C      0.639128     -2.672057      5.176769
C     -0.758933     -0.709400      4.924630
H     -1.205129     -0.125582      2.894860
H     -1.329478      0.103469      5.367293
H     -0.149269     -1.526115      6.827571
H      1.155289     -3.384751      5.815417
H      1.279638     -3.613802      3.342984
C      2.903332     -2.479666      0.976168
C      1.517045     -4.191525     -0.032751
C      3.930327     -4.399852     -0.086065
C      2.663804     -4.901029     -0.404600
C      4.050091     -3.189170      0.604319
H      2.996424     -1.538609      1.512800
H      5.034552     -2.799608      0.851914
H      4.821696     -4.951346     -0.375101
H      2.570711     -5.842086     -0.941232
H      0.532583     -4.581088     -0.280347
H     -5.714749      0.546103      0.570872
H     -5.354182     -0.099960     -0.980437
C     -5.618352     -1.489061      0.769017
C     -6.619427     -2.178813      0.185737
C     -7.095064     -3.313163      0.733039
C     -6.582381     -3.765949      1.891482
C     -5.609404     -3.066290      2.503361
C     -5.138130     -1.932403      1.949334
F     -7.150500     -1.742377     -0.948536
F     -8.068905     -3.984146      0.130798
F     -7.046131     -4.883959      2.435513
F     -5.116594     -3.495294      3.658893
F     -4.201754     -1.259559      2.603342
H     -4.060567      3.096700      1.651293
H     -4.528358      2.887263     -0.043261
H     -5.388883      1.995146      1.220792
H     -0.974355      1.707179      2.959777
H     -0.697200      2.710654      1.527846
H     -2.192082      2.901891      2.456804
