47
 K:3,4;
O     -3.569924     -1.887326     -0.999756
O     -1.191645     -2.690770      2.930197
N     -1.508807     -1.006016     -0.917174
N     -0.260038     -1.095680      1.678906
C     -1.900289     -0.978880     -2.378318
C     -3.397084     -1.214840     -2.300473
C     -2.470661     -1.565241     -0.296677
C     -2.589921     -1.881427      1.179089
C     -1.260781     -1.853112      1.896172
C      0.123667     -2.497283      3.541839
C      0.782187     -1.383552      2.696249
C     -1.094855     -2.037161     -3.100344
C      1.169349     -0.178976      3.514037
C     -3.480047     -0.792472      1.806794
C     -3.237207     -3.260613      1.353932
H     -1.673869     -0.112907     -2.763426
H     -3.799801     -1.811819     -3.051742
H     -3.920789     -0.337069     -2.248576
H     -0.040531     -2.271941      4.506256
H      0.607619     -3.369155      3.497150
H      1.566881     -1.693839      2.158540
C      0.131445     -1.712716     -3.669974
C      0.901447     -2.693130     -4.282028
C      0.458112     -3.985011     -4.325893
C     -0.759545     -4.328332     -3.771914
C     -1.532140     -3.358537     -3.157801
H      0.443421     -0.832585     -3.690156
H      1.739721     -2.389921     -4.699262
H      0.996509     -4.631541     -4.802232
H     -1.068929     -5.245037     -3.854908
H     -2.278809     -3.628711     -2.763426
C      2.287624     -0.288697      4.334090
C      2.641082      0.750707      5.187300
C      1.890092      1.915169      5.209129
C      0.792558      2.039048      4.383310
C      0.430458      0.996105      3.535455
H      2.785403     -1.068545      4.320910
H      3.398985      0.748347      5.638926
H      2.076759      2.577037      5.762490
H      0.287865      2.789401      4.444474
H     -0.299791      1.055095      3.023488
H     -3.635603     -0.974161      2.755766
H     -3.134367      0.028669      1.623096
H     -4.318321     -0.832585      1.314186
H     -3.324491     -3.475337      2.240916
H     -3.955357     -3.274771      0.758148
H     -2.676341     -3.994449      1.005276
