72
K:1,39
P      1.021603     -1.551351      0.854136
C      2.521465     -0.470137      0.776381
C      1.416216     -2.777804      2.184111
C      1.166040     -2.547560     -0.697798
C      2.663639      0.461658     -0.298433
C      3.472284     -0.505161      1.803226
C      1.967283     -4.037896      1.906536
C      1.144945     -2.437110      3.519424
C      0.000219     -2.969298     -1.354093
C      2.414867     -2.920599     -1.222907
C      3.788547      1.270757     -0.247415
C      1.785702      0.573933     -1.507522
C      4.593952      0.342776      1.831794
H      3.349662     -1.215335      2.612180
C      2.255111     -4.929870      2.941411
H      2.165912     -4.336263      0.883802
C      1.444095     -3.327935      4.550844
H      0.688903     -1.481518      3.748919
C      0.082211     -3.743480     -2.513785
H     -0.973614     -2.706480     -0.952152
C      2.493522     -3.708416     -2.372179
H      3.327572     -2.592654     -0.734809
C      4.723259      1.226142      0.783688
O      4.167972      2.217377     -1.167625
C      2.337539      0.188460     -2.719864
C      0.472132      1.144894     -1.582827
H      5.321855      0.297017      2.634340
C      1.999179     -4.576738      4.266438
H      2.675976     -5.904136      2.706413
H      1.226129     -3.047544      5.578022
C      1.326289     -4.118409     -3.022642
H     -0.833321     -4.048609     -3.011660
H      3.467024     -4.005330     -2.755381
O      5.719324      2.139410      0.550774
C      5.336835      2.845355     -0.634803
C      1.691546      0.322256     -3.946799
O      3.586313     -0.346774     -2.922749
C     -0.153204      1.288778     -2.827730
P     -0.428246      1.631663     -0.029542
H      2.221656     -5.273221      5.070774
H      1.387971     -4.728639     -3.920206
H      5.106659      3.887447     -0.379743
H      6.147219      2.789556     -1.369215
C      0.438701      0.884370     -4.036184
O      2.500406     -0.129616     -4.953598
C      3.636862     -0.713085     -4.303429
H     -1.129073      1.749791     -2.884004
C     -1.751322      2.824922     -0.548808
C      0.813749      2.756259      0.764092
H     -0.065306      1.014865     -4.987229
H      4.553011     -0.318337     -4.751612
H      3.585214     -1.805620     -4.393681
C     -1.780482      4.147516     -0.077712
C     -2.816865      2.380760     -1.353127
C      1.179989      2.643339      2.111214
C      1.388207      3.778567     -0.013996
C     -2.822011      5.008966     -0.430477
H     -0.993866      4.518165      0.568001
C     -3.846288      3.248280     -1.716093
C      2.089799      3.544398      2.672798
H      0.782041      1.844041      2.721790
C      2.286439      4.681301      0.552066
H      1.128393      3.871327     -1.064250
C     -3.852321      4.566800     -1.258618
H     -2.821802      6.028088     -0.052969
H     -4.656023      2.880919     -2.339988
C      2.638880      4.567224      1.900551
H      2.367597      3.438915      3.717800
H      2.708605      5.474833     -0.059415
H     -4.660731      5.238555     -1.534452
H      3.339400      5.270616      2.343050
H     -2.860147      1.350640     -1.687304
