52
K:8,7;44
C                 -0.51828248   -0.52738924   -0.44746188
C                 -1.91595348   -0.44183124   -0.64308888
C                 -0.55280948   -2.01038424   -0.36350388
C                 -2.06186948   -1.91933224   -0.59712688
N                  0.38137452    0.48587176   -0.37416888
N                 -2.75657748    0.55967076   -0.86394588
H                 -0.00260748    1.42029076   -0.43325588
H                 -2.40924148    1.50923876   -0.80409388
C                  1.77394452    0.44112676   -0.22969988
C                  2.45827652    1.66574876   -0.14732588
C                  2.49422052   -0.76043924   -0.17349488
C                  3.84343752    1.68122476   -0.00673688
H                  1.90540952    2.59870676   -0.18931988
C                  3.88236352   -0.71717024   -0.04005088
H                  1.97764152   -1.71279024   -0.22874388
C                  4.57504352    0.49194976    0.04655912
H                  5.65241052    0.51021876    0.15254512
C                 -4.21918648    0.42107976   -0.77168188
C                 -4.72612548    0.95715576    0.59019612
C                 -4.87778048    1.17171476   -1.93916188
H                 -4.43945048   -0.64676524   -0.85160488
C                 -6.26850548    0.87430276    0.64028312
H                 -4.44891948    2.02151276    0.62179512
C                 -6.40997548    1.10331376   -1.86454988
H                 -4.55981748    2.22428376   -1.89863288
H                 -4.51213848    0.75250176   -2.88319988
C                 -6.91512848    1.64349676   -0.51937188
H                 -6.61544348    1.26101176    1.60538712
H                 -6.57095148   -0.17904624    0.58205412
H                 -6.84451448    1.66767276   -2.69797088
H                 -6.72924648    0.05760476   -1.97643988
H                 -8.00757248    1.56470276   -0.46171688
H                 -6.65998248    2.70986476   -0.43792788
O                  0.24438852   -2.92367324   -0.19194688
O                 -2.98515148   -2.71091324   -0.71155888
C                  4.57672652    3.00382176    0.01880912
C                  4.64061352   -2.02203524    0.08121912
F                  3.80742252    4.01968176    0.49619612
F                  5.69838852    2.95767876    0.78624312
F                  4.97612952    3.37258776   -1.23635788
F                  5.92943652   -1.91547324   -0.34164588
F                  4.68849652   -2.44493224    1.38106612
F                  4.06780452   -3.02510624   -0.63487588
N                 -4.02446848    0.31927776    1.71573012
C                 -4.08631248    1.12610876    2.93312412
C                 -4.45110748   -1.05535324    1.99045012
H                 -3.45163248    0.66616576    3.70015712
H                 -3.71113248    2.13558876    2.72661712
H                 -5.11011348    1.21173876    3.34730612
H                 -4.43471048   -1.64915824    1.07316912
H                 -3.74719448   -1.50473324    2.70072412
H                 -5.46440648   -1.11114524    2.43050612
