51
 K:1,2;
P     -1.335186      0.908443     -1.564256
P     -1.405735      0.898337      1.520942
C     -2.911683      1.260773     -0.742439
H     -3.318498      0.405214     -0.492027
C     -2.523546      2.018040      0.581170
H     -1.988914      2.794688      0.316255
C     -3.841423      2.560725      1.153541
H     -4.164589      1.993121      1.870939
H     -3.723550      3.460585      1.493870
C     -4.817160      2.548265     -0.032776
H     -5.528613      1.908672      0.124820
H     -5.212704      3.425975     -0.150731
C     -4.004146      2.149558     -1.299341
H     -3.630666      2.931744     -1.735387
H     -4.558378      1.667787     -1.932623
C     -0.767408      2.506733     -2.317427
H     -1.484659      3.164323     -2.195605
C      0.479467      3.088181     -1.737321
C     -0.668308      2.198012     -3.818935
H      0.200604      1.818686     -4.025840
H     -0.779349      3.010655     -4.336197
C     -1.773491      1.198475     -4.163132
H     -2.642606      1.624870     -4.100287
H     -1.657660      0.867604     -5.067130
C     -1.673130      0.045270     -3.155681
H     -0.880238     -0.484955     -3.383856
C     -2.879278     -0.901660     -3.132476
C     -0.677512      1.857450      2.915130
H      0.144658      1.401982      3.191648
C     -0.322710      3.288919      2.602840
C     -1.728681      1.630408      4.016365
H     -2.515928      2.170324      3.847168
H     -1.366948      1.875447      4.882657
C     -2.068709      0.218320      3.990260
H     -1.303229     -0.310521      4.264844
H     -2.795633      0.043886      4.609040
C     -2.496287     -0.185925      2.545796
H     -3.417341      0.124181      2.418173
C     -2.474045     -1.652004      2.243174
H      1.234498      2.564878     -2.014805
H      0.584554      3.990810     -2.045744
H      0.420102      3.081259     -0.779179
H     -3.666887     -0.410198     -2.888832
H     -2.999642     -1.287907     -4.002636
H     -2.725599     -1.599397     -2.490492
H     -1.109853      3.758231      2.315687
H      0.031047      3.709777      3.389851
H      0.335304      3.309685      1.904779
H     -1.572169     -1.975954      2.301185
H     -3.023738     -2.117163      2.877423
H     -2.811253     -1.800135      1.356578
