72
 K:1,2;
P     -0.979715      1.555132     -1.261691
P     -1.754523      0.181651      1.345026
C     -2.599767      1.995773     -0.537147
C     -2.881862      1.462208      0.705193
C     -4.063889      1.824912      1.366734
H     -4.263778      1.463706      2.221786
C     -4.934401      2.706193      0.768462
H     -5.724438      2.980470      1.221136
C     -4.654902      3.199291     -0.512793
H     -5.282259      3.773324     -0.938995
C     -3.498835      2.872558     -1.156861
H     -3.305868      3.233763     -2.013766
C     -1.184969      1.118987     -3.048565
H     -1.892801      1.733486     -3.398262
C      0.121664      1.616582     -3.635983
H      0.876223      1.044048     -3.342671
H      0.083590      1.610587     -4.626572
C      0.293863      3.026932     -3.118981
H     -0.354262      3.627942     -3.567684
H      1.206775      3.349169     -3.324140
C      0.060226      3.056908     -1.592329
H      0.945449      2.914524     -1.148125
C     -1.643589     -0.316842     -3.430559
C     -0.467619      4.435783     -1.143360
C     -2.728700     -1.389967      1.679106
H     -2.110861     -2.160339      1.525567
C     -2.964067     -1.291048      3.188021
H     -3.748912     -0.717016      3.365385
H     -3.150111     -2.191814      3.555985
C     -1.738774     -0.706525      3.865709
H     -1.000656     -1.364488      3.852473
H     -1.948181     -0.493698      4.810767
C     -1.312171      0.577928      3.121576
H     -1.896262      1.328816      3.431565
C     -3.954858     -1.613285      0.808170
C      0.158008      0.972107      3.372003
H     -2.478622     -0.513182     -2.919116
C     -0.637222     -1.427437     -3.115010
H      0.260981     -1.142669     -3.387674
H     -0.882107     -2.241273     -3.602098
H     -0.642413     -1.610288     -2.151422
C     -2.007023     -0.310847     -4.925179
H     -1.189296     -0.381290     -5.460447
H     -2.470835      0.525471     -5.145428
H     -2.592845     -1.070728     -5.121603
H     -1.368417      4.569175     -1.561092
C     -0.632030      4.573671      0.376673
H      0.246270      4.503229      0.808170
H     -1.216121      3.858754      0.707576
H     -1.030942      5.444461      0.585804
C      0.441833      5.552373     -1.637861
H      1.348688      5.411488     -1.293723
H      0.102627      6.415669     -1.322842
H      0.460004      5.547877     -2.619980
H     -4.526835     -0.796451      0.869056
C     -3.588828     -1.818618     -0.668979
H     -2.927724     -1.147165     -0.938995
H     -4.392710     -1.727192     -1.219600
H     -3.209818     -2.714887     -0.788103
C     -4.764798     -2.806313      1.369381
H     -4.168592     -3.572188      1.507036
H     -5.470034     -3.050614      0.734048
H     -5.171498     -2.551521      2.224433
H      0.756809      0.255691      3.013304
C      0.492021      2.291032      2.690344
H     -0.190716      2.957988      2.918005
H      0.509327      2.162137      1.718814
H      1.368590      2.604277      2.994774
C      0.426257      1.148963      4.876947
H      1.042365      1.898352      5.014603
H      0.826900      0.329131      5.236969
H     -0.417430      1.330315      5.342858
