50
K:1,2;
P     -1.530670     -1.749490      0.223640
P     -1.707114      1.393781     -0.637692
C     -2.224547     -2.584664      1.704645
C     -1.026036     -3.153739     -0.924660
C     -1.420214      2.158566     -2.275279
C     -2.351401      2.597379      0.665344
C     -3.183030      0.297676     -0.923979
C     -3.108089     -1.083338     -0.518998
N     -4.150536     -1.873029     -0.601913
N     -4.292609      0.802603     -1.407498
C     -5.368966     -0.014968     -1.526719
C     -5.299663     -1.364972     -1.113197
C     -6.442499     -2.191821     -1.228849
H     -6.361946     -3.221714     -0.902303
C     -6.579371      0.493333     -2.055448
C     -7.599884     -1.678662     -1.745475
H     -8.477492     -2.307733     -1.838817
C     -7.668569     -0.326559     -2.162009
H     -6.606415      1.531592     -2.363963
H     -8.597020      0.057211     -2.568631
H     -3.099318     -3.183481      1.446988
H     -2.509787     -1.825148      2.434932
H     -1.455632     -3.215992      2.153323
C     -0.780691     -2.542734     -2.310448
H     -0.439324     -3.326730     -2.994722
H     -0.003121     -1.774550     -2.274151
H     -1.694719     -2.113083     -2.732240
C      0.305025     -3.694527     -0.379749
H      1.062412     -2.908902     -0.340043
H      0.665672     -4.487229     -1.043929
H      0.193293     -4.128919      0.618621
C     -2.052173     -4.285951     -1.011977
H     -2.198019     -4.775290     -0.045109
H     -1.686089     -5.044318     -1.712649
H     -3.022679     -3.932176     -1.362155
C     -3.356132      3.636682      0.164559
H     -2.877052      4.372791     -0.484595
H     -3.771357      4.177986      1.022183
H     -4.179452      3.171967     -0.381515
C     -1.129841      3.295212      1.285327
H     -0.410541      2.571316      1.677237
H     -1.462616      3.934550      2.110329
H     -0.605290      3.927463      0.567588
C     -3.008026      1.730445      1.754136
H     -2.337655      0.933102      2.091089
H     -3.943004      1.280489      1.412359
H     -3.238099      2.358555      2.620689
H     -0.531143      1.737467     -2.758294
H     -2.274689      1.982632     -2.943086
H     -1.287054      3.242850     -2.187684
