72
 K:1,2,3;
P     -1.099120     -1.399940      1.313020
P      1.174420      1.555840     -1.049270
N     -1.051330      1.574950      0.928440
C     -1.739090      1.228630      2.044220
C     -1.915380      2.163140      3.055060
H     -2.355680      1.926010      3.862190
C     -1.437730      3.453340      2.857520
H     -1.573270      4.109250      3.531930
C     -0.771880      3.799420      1.712420
H     -0.459010      4.685190      1.579690
C     -0.569110      2.823230      0.750960
C     -2.278560     -0.179090      2.075090
H     -3.010030     -0.139770      1.394500
C     -3.041700     -0.528470      3.345200
C     -2.205500     -2.608530      0.383660
C     -0.093610     -2.184240      2.700110
C      0.172980      3.050440     -0.548480
H      0.776660      3.827860     -0.446620
H     -0.478510      3.260760     -1.263010
C      2.883140      1.854730     -0.333960
C      1.138130      1.563340     -2.900420
H     -2.441020     -0.458170      4.116830
H     -3.382380     -1.444930      3.280380
H     -3.792780      0.090810      3.457860
C     -2.626000     -1.881800     -0.892620
H     -1.831630     -1.680170     -1.429680
H     -3.082560     -1.046670     -0.658050
H     -3.232950     -2.452210     -1.409620
C     -1.389470     -3.842700     -0.008330
H     -1.246480     -4.403650      0.781830
H     -0.522880     -3.559760     -0.369460
H     -1.876010     -4.353500     -0.688910
C     -3.468260     -3.049220      1.149120
H     -3.974820     -3.689530      0.604350
H     -4.027130     -2.265290      1.335860
H     -3.207930     -3.473280      1.993290
C      1.140390     -2.871760      2.064280
H      1.795300     -3.079290      2.764930
H      1.546970     -2.270520      1.405310
H      0.861780     -3.701360      1.622910
C     -0.846990     -3.168130      3.599840
H     -0.237190     -3.520980      4.280420
H     -1.194920     -3.905660      3.058150
H     -1.592110     -2.704340      4.038120
C      0.421530     -1.005810      3.545820
H     -0.332710     -0.573830      3.998000
H      0.868970     -0.357470      2.964010
H      1.055700     -1.338440      4.214060
C      3.623050      0.500570     -0.320070
H      3.713730      0.167770     -1.238320
H      3.113680     -0.145270      0.212360
H      4.512420      0.618520      0.073460
C      2.651890      2.267530      1.127520
H      3.510920      2.301930      1.596670
H      2.066020      1.613620      1.562720
H      2.228970      3.151730      1.153750
C      3.704500      2.909910     -1.039230
H      4.570540      3.002200     -0.590140
H      3.228800      3.766530     -1.013000
H      3.846240      2.643760     -1.971370
C      1.386720      2.929650     -3.545510
H      2.261360      3.268730     -3.266170
H      0.687740      3.556160     -3.263090
H      1.367420      2.837320     -4.520850
C      2.151930      0.544060     -3.459080
H      2.012950      0.440220     -4.423630
H      2.024170     -0.320240     -3.014620
H      3.063540      0.864790     -3.292410
C     -0.279980      1.073910     -3.280060
H     -0.947590      1.689520     -2.912770
H     -0.425340      0.177030     -2.912770
H     -0.363260      1.045460     -4.255410
