69
 K:1,2,3;
C      0.000203      1.975561     -0.000529
P      2.265442      0.236343      0.377666
P     -2.265039      0.236621     -0.379126
C      2.326096      1.988873      0.997274
C      3.078463     -0.763986      1.777569
C      3.347432      0.225287     -1.188318
C     -2.325521      1.989136     -0.998745
C     -3.076424     -0.763911     -1.779825
C     -3.348478      0.225448      1.185827
C      1.119326      2.716346      0.465304
C      1.111735      4.111691      0.448444
C      0.000590      4.820497     -0.001055
C     -1.118684      2.716473     -0.466704
C     -1.110726      4.111828     -0.450332
H      1.994087      4.650002      0.805951
H      0.000728      5.910485     -0.001222
H     -1.992905      4.650242     -0.808109
H      2.277764      1.929034      2.096526
H      3.268508      2.506111      0.752193
H     -2.277241      1.929498     -2.098005
H     -3.267895      2.506388     -0.753567
C      4.349205     -0.130976      2.347614
H      5.168787     -0.085776      1.620257
H      4.174613      0.887201      2.724432
H      4.702324     -0.734623      3.200118
C      2.031573     -0.845403      2.894974
H      1.735666      0.145542      3.270208
H      1.113712     -1.347874      2.555757
H      2.449643     -1.412033      3.743575
C      3.376164     -2.185921      1.301587
H      3.666362     -2.809507      2.163016
H      2.493782     -2.654643      0.837282
H      4.204731     -2.222375      0.579801
C      4.846206      0.387562     -0.942817
H      5.080627      1.278598     -0.340705
H      5.289392     -0.489650     -0.449991
H      5.360010      0.505591     -1.911128
C      2.858841      1.390441     -2.056198
H      3.067860      2.372377     -1.607158
H      3.379166      1.351620     -3.027259
H      1.776387      1.329079     -2.242866
C      3.085109     -1.070858     -1.960690
H      3.420591     -1.967120     -1.420725
H      2.011989     -1.183744     -2.179825
H      3.628270     -1.041227     -2.919761
C     -4.347343     -0.131865     -2.350545
H     -5.167655     -0.088203     -1.623921
H     -4.173586      0.886824     -2.726375
H     -4.698987     -0.735217     -3.203868
C     -2.028754     -0.844128     -2.896593
H     -1.734278      0.147175     -3.272024
H     -1.110271     -1.344975     -2.556657
H     -2.445483     -1.411689     -3.745228
C     -3.373213     -2.186186     -1.304290
H     -3.662464     -2.809860     -2.165973
H     -2.490707     -2.654276     -0.839578
H     -4.202136     -2.223420     -0.582951
C     -4.847049      0.387432      0.938993
H     -5.081113      1.278203      0.336348
H     -5.289630     -0.490044      0.446092
H     -5.361724      0.505705      1.906814
C     -2.860714      1.390753      2.053972
H     -3.069592      2.372632      1.604735
H     -3.381688      1.351919      3.024684
H     -1.778379      1.329589      2.241380
C     -3.086598     -1.070636      1.958456
H     -3.421475     -1.966962      1.418211
H     -2.013647     -1.183350      2.178498
H     -3.630583     -1.041082      2.917062
