26
K:21,23,25;
B       -3.183132       -0.062567        0.145157
H       -4.307004       -0.144333        0.187246
C       -3.455934        1.909433       -1.578502
C       -2.603811        2.848024       -2.127646
C       -1.340141        2.520958       -1.627219
H       -4.531663        1.801551       -1.717316
H       -2.855081        3.672290       -2.795141
H       -0.386257        3.008403       -1.828718
C       -3.248410        0.471724        2.722359
C       -2.296935        0.506171        3.721557
C       -1.084321        0.209383        3.093205
H       -4.323821        0.636263        2.789572
H       -2.419183        0.737123        4.779771
H       -0.103762        0.116739        3.560132
C       -3.248796       -2.612370       -0.478887
C       -2.368799       -3.499833       -1.074760
C       -1.200587       -2.758316       -1.290176
H       -4.244503       -2.791037       -0.072999
H       -2.539641       -4.547665       -1.321662
H       -0.266440       -3.090168       -1.743324
N       -1.409282        1.457271       -0.820238
N       -2.732182        1.082887       -0.787594
N       -1.274941        0.018656        1.781489
N       -2.620850        0.176387        1.558450
N       -1.353326       -1.500457       -0.853876
N       -2.636194       -1.411801       -0.380624

