83
 K:4;
C     -3.319075     -0.284280     -0.983468
C     -1.398009     -0.233933     -3.304090
C     -2.147293      2.263352     -1.748042
P     -1.728889      0.445615     -1.608153
C     -4.018635     -1.448902     -1.388409
C     -5.000217     -1.953100     -0.520476
H     -5.429273     -2.769950     -0.745601
C     -5.371395     -1.314663      0.647622
H     -6.027400     -1.696952      1.218220
C     -4.772995     -0.106631      0.976106
H     -5.060309      0.379135      1.740679
C     -3.753743      0.382350      0.178967
H     -3.331780      1.196288      0.423914
C     -3.962728     -2.168507     -2.712254
C     -3.101183     -3.273839     -2.916140
C     -3.225976     -3.996903     -4.098397
H     -2.657199     -4.744343     -4.238569
C     -4.156205     -3.663453     -5.088095
C     -5.001516     -2.588963     -4.847396
H     -5.646179     -2.351986     -5.504363
C     -4.930641     -1.848366     -3.665139
C     -2.096245     -3.710439     -1.866975
H     -1.873151     -2.909876     -1.311952
C     -2.696189     -4.763492     -0.936744
H     -3.479387     -4.389418     -0.480832
H     -2.028166     -5.030620     -0.271282
H     -2.967962     -5.546473     -1.460619
C     -0.791550     -4.230900     -2.470139
H     -0.965596     -5.064955     -2.957201
H     -0.145391     -4.401082     -1.753705
H     -0.427618     -3.562744     -3.087461
C     -4.197229     -4.512576     -6.355305
H     -4.308317     -5.464245     -6.069298
C     -2.877421     -4.421173     -7.109968
H     -2.736778     -3.498831     -7.410133
H     -2.903790     -5.016822     -7.887284
H     -2.143600     -4.687311     -6.518131
C     -5.352798     -4.183947     -7.291200
H     -6.196287     -4.218241     -6.792811
H     -5.378375     -4.837522     -8.021792
H     -5.228277     -3.285503     -7.662160
C     -5.974227     -0.750708     -3.428688
H     -5.671770     -0.207159     -2.644292
C     -6.142144      0.196383     -4.609529
H     -5.267053      0.556967     -4.865803
H     -6.736776      0.932963     -4.356087
H     -6.528736     -0.291579     -5.367023
C     -7.329357     -1.369610     -3.071887
H     -7.648000     -1.913719     -3.822301
H     -7.976865     -0.656557     -2.887823
H     -7.231015     -1.934492     -2.276164
H     -1.570442     -1.216354     -3.238960
C     -2.354656      0.287221     -4.385820
H     -3.289035      0.189615     -4.072912
H     -2.182991      1.250006     -4.541567
C     -2.172902     -0.479197     -5.692675
H     -2.399363     -1.433542     -5.551087
H     -2.788380     -0.116091     -6.377959
C     -0.735541     -0.368022     -6.191063
H     -0.539698      0.571950     -6.428931
H     -0.623724     -0.920691     -7.005193
C      0.241964     -0.838425     -5.116413
H      1.168007     -0.699877     -5.437817
H      0.116048     -1.809063     -4.964914
C      0.058142     -0.098588     -3.792568
H      0.280762      0.858611     -3.912917
H      0.672158     -0.473963     -3.112947
H     -2.184440      2.586075     -0.802236
C     -1.033642      3.097359     -2.396513
H     -0.986095      2.893173     -3.363557
H     -0.163202      2.859625     -1.990157
C     -1.301593      4.601428     -2.199706
H     -1.251935      4.821059     -1.235494
H     -0.601972      5.123657     -2.668362
C     -2.667008      4.995295     -2.736324
H     -2.671040      4.898247     -3.721774
H     -2.841023      5.945411     -2.522526
C     -3.775381      4.132759     -2.140240
H     -4.636407      4.373405     -2.566418
H     -3.851497      4.326525     -1.171780
C     -3.518379      2.631758     -2.335631
H     -3.539407      2.411757     -3.301259
H     -4.226803      2.109135     -1.883966
