143
F:1-2;4-31 L:44-143 K:4,5,6
B                 -0.50810017   -0.77319586    0.00000000 
 C                  1.17992283   -1.02966186    0.33547000 
 C                  1.49923883    0.06160214    1.21167200 
 C                  1.23054383    0.03829414    2.56367400 
 H                  1.65292883   -0.97977686   -0.64737100 
 H                  1.26321183   -2.02151786    0.78373400 
 H                  1.71888483    1.02442714    0.74894900 
 H                  1.41168783    0.91424214    3.18097600 
 H                  1.18560383   -0.91151686    3.08689600 
 O                 -0.71596617    0.48739114   -0.64735000 
 C                 -1.73528517    0.31003214   -1.64635600 
 O                 -1.08851017   -1.80114186   -0.84471000 
 C                 -1.51916617   -1.18585286   -2.08744200 
 C                 -3.11020817    0.54266614   -0.99471800 
 H                 -3.31176717   -0.19840086   -0.21553400 
 H                 -3.11508917    1.53499414   -0.53138300 
 H                 -3.92330317    0.50560914   -1.72792800 
 C                 -1.50820617    1.34097714   -2.75331500 
 H                 -1.66319417    2.34837114   -2.35238800 
 H                 -0.48951117    1.28920214   -3.14474800 
 H                 -2.21138317    1.19612314   -3.58199200 
 C                 -2.77877917   -1.89538086   -2.58078500 
 H                 -3.53971317   -1.95640286   -1.79938200 
 H                 -2.53748117   -2.91435986   -2.89702800 
 H                 -3.20365717   -1.37047786   -3.44452900 
 C                 -0.38883017   -1.35630886   -3.11360900 
 H                  0.51007183   -0.81102286   -2.81217300 
 H                 -0.13479217   -2.41867286   -3.18955500 
 H                 -0.68893117   -1.00535586   -4.10702200 
 O                 -1.11375617   -0.88512986    1.37389000 
 C                 -0.93289817    0.05148114    2.24859700 
 H                 -0.94397217    1.08247514    1.88955300 
 C                 -1.37675917   -0.19291786    3.63207900 
 C                 -1.64060117    0.89907214    4.47231800 
 C                 -1.55199517   -1.50276286    4.10995700 
 C                 -2.08089017    0.68905914    5.77752200 
 C                 -1.98861017   -1.70425986    5.41664700 
 C                 -2.25448117   -0.61350786    6.25120300 
 H                 -1.50570517    1.91160614    4.09795400 
 H                 -1.33334617   -2.34288586    3.45619600 
 H                 -2.28982017    1.53807114    6.42252900 
 H                 -2.12262517   -2.71701786    5.78592300 
 H                 -2.59600417   -0.77904586    7.26956600 
 O                 -1.91023717   -5.90499086    1.59439200 
 P                 -0.74364517   -4.97938886    0.94591600 
 O                  0.30221983   -6.08526586    0.37360300 
 O                 -0.23531717   -4.02359886    1.95443400 
 O                 -1.29982117   -4.39368386   -0.40896100 
 H                 -1.21411317   -3.38829686   -0.51131500 
 C                 -2.28987217   -7.18111086    1.19380100 
 C                 -1.37601817   -8.25057986    1.26634900 
 C                 -3.64514617   -7.37239086    0.87025700 
 C                 -1.85754117   -9.53696386    0.96546200 
 C                 -4.07827117   -8.68059186    0.61541200 
 C                 -3.19343417   -9.75574986    0.65179100 
 H                 -1.16070517  -10.36914986    0.97363500 
 H                 -5.12572617   -8.84243586    0.37742300 
 H                 -3.54352917  -10.76017186    0.43142100 
 C                  0.85227083   -7.03371386    1.23463500 
 C                  0.04439283   -8.09687986    1.67359500 
 C                  2.22198083   -6.94572786    1.53136300 
 C                  0.64671683   -9.07800486    2.48015100 
 C                  2.77996483   -7.97010586    2.30902100 
 C                  2.00014383   -9.01934086    2.79203600 
 H                  0.03571383   -9.88717586    2.86773800 
 H                  3.84061783   -7.92802986    2.53862800 
 H                  2.44845783   -9.79094086    3.41155100 
 C                  3.08504483   -5.81730986    1.04783300 
 C                  3.58324883   -4.86843186    1.97194900 
 C                  3.45402283   -5.73266586   -0.31690800 
 C                  4.44182483   -3.86375186    1.50757000 
 C                  4.31298483   -4.70760986   -0.72343700 
 C                  4.82419383   -3.76251986    0.17025300 
 H                  4.82857483   -3.13447586    2.21606600 
 H                  4.59889183   -4.65368186   -1.77114800 
 C                 -4.61663917   -6.23212086    0.78595500 
 C                 -5.10837417   -5.82517586   -0.47888000 
 C                 -5.07680917   -5.59200486    1.95918300 
 C                 -6.02582717   -4.77080886   -0.53895800 
 C                 -5.99728017   -4.54471486    1.83967700 
 C                 -6.48178017   -4.11095186    0.60515800 
 H                 -6.39583017   -4.45856286   -1.51271300 
 H                 -6.35470217   -4.05140486    2.74119700 
 C                  3.23517083   -4.89589686    3.46152100 
 C                  2.55528383   -3.59319386    3.92432700 
 C                  4.47558883   -5.20638286    4.32231300 
 H                  2.51325383   -5.69977086    3.62799400 
 H                  1.63418483   -3.42480486    3.35958900 
 H                  2.29915383   -3.66083186    4.98915200 
 H                  3.21257383   -2.72420486    3.79833800 
 H                  4.94077883   -6.15550786    4.03209900 
 H                  5.23628483   -4.42263586    4.22518400 
 H                  4.20004383   -5.27350086    5.38179300 
 C                  2.98611083   -6.74659986   -1.36069400 
 C                  4.16901283   -7.56558086   -1.91461600 
 C                  2.19042683   -6.07925686   -2.49873600 
 H                  2.31249683   -7.45528586   -0.87148800 
 H                  4.70895683   -8.07672886   -1.10956600 
 H                  3.81238183   -8.32503386   -2.62120700 
 H                  4.88717783   -6.92879386   -2.44471900 
 H                  1.32502383   -5.53808186   -2.10484300 
 H                  2.80983583   -5.37224286   -3.06386900 
 H                  1.82763083   -6.83710286   -3.20382100 
 C                  5.78055483   -2.66844386   -0.28635400 
 C                  5.14058283   -1.73832986   -1.33372100 
 C                  7.10820383   -3.25252086   -0.80602800 
 H                  6.01481183   -2.05653086    0.59573100 
 H                  4.21746483   -1.29040186   -0.95038900 
 H                  5.82860183   -0.92799386   -1.60403500 
 H                  4.89152383   -2.28299786   -2.25220100 
 H                  7.58635783   -3.88341986   -0.04872900 
 H                  6.94881183   -3.86734486   -1.69994300 
 H                  7.80656683   -2.45018586   -1.07373400 
 C                 -4.64830517   -6.03646586    3.35686000 
 C                 -5.83617817   -6.63542986    4.13647300 
 C                 -3.97764117   -4.90130986    4.15215200 
 H                 -3.90716017   -6.83313786    3.24862400 
 H                 -6.28465917   -7.47435186    3.59240900 
 H                 -5.50613117   -7.00268586    5.11596200 
 H                 -6.62268317   -5.89073986    4.30725800 
 H                 -3.10627317   -4.51455386    3.61611400 
 H                 -4.66770417   -4.06859386    4.33232000 
 H                 -3.64372517   -5.27182286    5.12958700 
 C                 -4.68402917   -6.49649086   -1.78694200 
 C                 -3.96030417   -5.51856686   -2.72976100 
 C                 -5.87929317   -7.16521586   -2.49393000 
 H                 -3.96841517   -7.28724486   -1.54907700 
 H                 -3.07500617   -5.10076986   -2.24177900 
 H                 -3.64002817   -6.03664786   -3.64228900 
 H                 -4.61054517   -4.68802686   -3.02991900 
 H                 -6.37426817   -7.89377886   -1.84152600 
 H                 -6.63225817   -6.42820786   -2.79690100 
 H                 -5.54527717   -7.68961486   -3.39743100 
 C                 -7.48101917   -2.96433286    0.52100100 
 C                 -8.82221917   -3.41274286   -0.08949900 
 C                 -6.90549117   -1.75538286   -0.24088300 
 H                 -7.68215917   -2.63701986    1.55037300 
 H                 -9.25383217   -4.24786686    0.47301900 
 H                 -9.54500417   -2.58782586   -0.08550400 
 H                 -8.69676917   -3.73989186   -1.12846900 
 H                 -5.96993417   -1.41068886    0.21309100 
 H                 -6.69631717   -2.00771586   -1.28751600 
 H                 -7.61628017   -0.92000686   -0.23604700 
