93
C:34 L:35-93 K:1,2 F:1-34;1-2;2-34;2-3;3-34
C      1.44871    0.72306    2.72538
C      2.61607    0.41221    1.87271
B      2.60936   -0.00137   -0.09496
H      1.36951    1.75895    3.04986
H      1.22654    0.02094    3.52359
C      3.69033    1.50698    1.81567
H      3.05609   -0.56200    2.09568
O      3.11888    0.94445   -0.96970
O      3.12202   -1.25461   -0.39319
C      4.37189    1.68026    3.17210
H      3.22273    2.44600    1.50377
H      4.44987    1.28905    1.06132
C      3.91234    0.30047   -1.98024
C      4.16719   -1.13015   -1.37067
H      5.14837    2.44920    3.12257
H      4.84448    0.74538    3.49054
H      3.65153    1.96547    3.94150
C      5.17343    1.12570   -2.20234
C      3.08624    0.28891   -3.26649
C      5.49129   -1.24842   -0.61577
C      4.03721   -2.27652   -2.36393
H      4.90105    2.10342   -2.60551
H      5.83958    0.63465   -2.91784
H      5.71559    1.28489   -1.27040
H      3.64349   -0.14587   -4.10008
H      2.82805    1.31879   -3.52227
H      2.15694   -0.26811   -3.14246
H      6.34952   -1.18941   -1.28982
H      5.51701   -2.21335   -0.10526
H      5.58594   -0.46790    0.14214
H      4.19668   -3.22484   -1.84594
H      4.78471   -2.19093   -3.15792
H      3.04511   -2.30303   -2.81551
Cu     0.81824    0.27496    0.88427
P     -0.41903    1.71616   -0.29990
P     -0.66985   -1.42606    0.60128
C     -0.06832    2.13282   -2.05089
C     -0.85467    3.35876    0.50361
C     -2.04657    0.83480   -0.46784
C     -0.45179   -2.64636   -0.83726
C     -1.19513   -2.29508    2.19269
C     -2.18466   -0.50700    0.03761
H      0.78738    2.80960   -2.08521
H     -0.93134    2.58644   -2.54080
H      0.21321    1.21552   -2.56966
C     -1.67904    4.29899   -0.38003
C      0.49396    4.01519    0.83749
C     -1.60375    3.04733    1.80547
N     -3.05598    1.46137   -1.01894
C      0.69630   -3.59910   -0.47505
C     -0.01600   -1.78293   -2.03099
C     -1.68535   -3.45339   -1.25923
C     -2.17261   -3.46444    2.04635
C      0.09589   -2.78740    2.86852
C     -1.82573   -1.20749    3.07974
N     -3.34869   -1.10853    0.04757
H     -2.61456    3.83625   -0.69493
H     -1.12528    4.59923   -1.27398
H     -1.91003    5.21038    0.18274
H      0.31801    4.97900    1.32700
H      1.08965    4.20398   -0.06109
H      1.08165    3.38886    1.51128
H     -1.04632    2.32878    2.41303
H     -2.59959    2.64028    1.60865
H     -1.72831    3.96915    2.38333
C     -4.26210    0.83869   -1.03492
H      0.97775   -4.17168   -1.36633
H      0.39383   -4.31829    0.28989
H      1.58085   -3.05536   -0.13484
H      0.87292   -1.20290   -1.78358
H     -0.80692   -1.09559   -2.34826
H      0.21644   -2.43351   -2.88131
H     -1.41382   -4.06680   -2.12626
H     -2.51713   -2.81159   -1.55160
H     -2.03903   -4.12519   -0.47951
H     -3.05966   -3.17882    1.47996
H     -2.48739   -3.78641    3.04555
H     -1.70217   -4.32466    1.56468
H     -0.14939   -3.18507    3.85928
H      0.81542   -1.97684    2.99332
H      0.57941   -3.58616    2.30337
H     -1.17879   -0.32898    3.14711
H     -1.96627   -1.61180    4.08776
H     -2.80428   -0.90103    2.70315
C     -4.41710   -0.44414   -0.46256
C     -5.37974    1.48676   -1.61153
C     -5.69266   -1.05603   -0.45250
C     -6.60165    0.87243   -1.59575
H     -5.23277    2.46659   -2.04990
C     -6.76012   -0.40614   -1.00853
H     -5.78570   -2.03749   -0.00317
H     -7.46190    1.36501   -2.03398
H     -7.73886   -0.87166   -1.00567
