59
K:1,2;
P      1.52675   -1.73904    0.20125
P      1.70319    1.40424   -0.66008
C      2.22063   -2.57421    1.68226
C      1.02211   -3.14328   -0.94705
C      1.37092    2.20574   -2.33443
C      2.34748    2.60783    0.64296
C      3.17911    0.30813   -0.94636
C      3.10417   -1.07288   -0.54138
N      4.14661   -1.86257   -0.62430
N      4.28869    0.81306   -1.42988
C      5.36504   -0.00451   -1.54910
C      5.29574   -1.35452   -1.13558
C      6.43858   -2.18137   -1.25124
H      6.35802   -3.21126   -0.92469
C      6.57545    0.50379   -2.07783
C      7.59596   -1.66821   -1.76786
H      8.47357   -2.29728   -1.86120
C      7.66465   -0.31610   -2.18439
H      6.60249    1.54205   -2.38635
H      8.59310    0.06767   -2.59102
H      3.09540   -3.17303    1.42460
H      2.50587   -1.81469    2.41255
H      1.45171   -3.20554    2.13094
C     -0.37933   -2.81546   -1.47847
H     -0.72444   -3.63671   -2.11554
H     -1.09859   -2.70630   -0.66189
H     -0.38038   -1.90506   -2.08602
C      0.93684   -4.40268   -0.07083
H      0.22341   -4.26728    0.74471
H      0.59975   -5.24290   -0.68725
H      1.90916   -4.67518    0.35137
C      1.99334   -3.37934   -2.10613
H      2.98455   -3.67303   -1.75004
H      1.61208   -4.19609   -2.72874
H      2.10716   -2.49284   -2.73130
C      2.26476    1.42827   -3.31726
H      2.03802    0.35864   -3.31785
H      2.09694    1.81298   -4.32879
H      3.32618    1.56211   -3.08719
C      1.66726    3.70224   -2.47596
H      2.71190    3.93041   -2.26724
H      1.44973    3.99828   -3.50856
H      1.05237    4.31767   -1.82021
C     -0.09884    1.93040   -2.68394
H     -0.77717    2.55493   -2.09685
H     -0.26482    2.16935   -3.73959
H     -0.35826    0.87926   -2.52867
C      3.35221    3.64714    0.14217
H      2.87313    4.38325   -0.50698
H      3.76743    4.18844    0.99980
H      4.17553    3.18242   -0.40390
C      1.12592    3.30567    1.26294
H      0.40662    2.58177    1.65485
H      1.45869    3.94501    2.08794
H      0.60137    3.93792    0.54520
C      3.00410    1.74090    1.73175
H      2.33373    0.94356    2.06870
H      3.93908    1.29094    1.38997
H      3.23418    2.36901    2.59830
59
K:1,2;
P      1.52675   -1.73904    0.20125
P      1.70319    1.40424   -0.66008
C      2.22063   -2.57421    1.68226
C      1.02211   -3.14328   -0.94705
C      1.37092    2.20574   -2.33443
C      2.34748    2.60783    0.64296
C      3.17911    0.30813   -0.94636
C      3.10417   -1.07288   -0.54138
N      4.14661   -1.86257   -0.62430
N      4.28869    0.81306   -1.42988
C      5.36504   -0.00451   -1.54910
C      5.29574   -1.35452   -1.13558
C      6.43858   -2.18137   -1.25124
H      6.35802   -3.21126   -0.92469
C      6.57545    0.50379   -2.07783
C      7.59596   -1.66821   -1.76786
H      8.47357   -2.29728   -1.86120
C      7.66465   -0.31610   -2.18439
H      6.60249    1.54205   -2.38635
H      8.59310    0.06767   -2.59102
H      3.09540   -3.17303    1.42460
H      2.50587   -1.81469    2.41255
H      1.45171   -3.20554    2.13094
C     -0.37933   -2.81546   -1.47847
H     -0.72444   -3.63671   -2.11554
H     -1.09859   -2.70630   -0.66189
H     -0.38038   -1.90506   -2.08602
C      0.93684   -4.40268   -0.07083
H      0.22341   -4.26728    0.74471
H      0.59975   -5.24290   -0.68725
H      1.90916   -4.67518    0.35137
C      1.99334   -3.37934   -2.10613
H      2.98455   -3.67303   -1.75004
H      1.61208   -4.19609   -2.72874
H      2.10716   -2.49284   -2.73130
C      2.26476    1.42827   -3.31726
H      2.03802    0.35864   -3.31785
H      2.09694    1.81298   -4.32879
H      3.32618    1.56211   -3.08719
C      1.66726    3.70224   -2.47596
H      2.71190    3.93041   -2.26724
H      1.44973    3.99828   -3.50856
H      1.05237    4.31767   -1.82021
C     -0.09884    1.93040   -2.68394
H     -0.77717    2.55493   -2.09685
H     -0.26482    2.16935   -3.73959
H     -0.35826    0.87926   -2.52867
C      3.35221    3.64714    0.14217
H      2.87313    4.38325   -0.50698
H      3.76743    4.18844    0.99980
H      4.17553    3.18242   -0.40390
C      1.12592    3.30567    1.26294
H      0.40662    2.58177    1.65485
H      1.45869    3.94501    2.08794
H      0.60137    3.93792    0.54520
C      3.00410    1.74090    1.73175
H      2.33373    0.94356    2.06870
H      3.93908    1.29094    1.38997
H      3.23418    2.36901    2.59830
