59
K:1,2;
P      1.52675   -1.73904    0.20125
P      1.70319    1.40424   -0.66008
C      2.22063   -2.57421    1.68226
C      1.02211   -3.14328   -0.94705
C      1.37092    2.20574   -2.33443
C      2.34748    2.60783    0.64296
C      3.17911    0.30813   -0.94636
C      3.10417   -1.07288   -0.54138
N      4.14661   -1.86257   -0.62430
N      4.28869    0.81306   -1.42988
C      5.36504   -0.00451   -1.54910
C      5.29574   -1.35452   -1.13558
C      6.43858   -2.18137   -1.25124
H      6.35802   -3.21126   -0.92469
C      6.57545    0.50379   -2.07783
C      7.59596   -1.66821   -1.76786
H      8.47357   -2.29728   -1.86120
C      7.66465   -0.31610   -2.18439
H      6.60249    1.54205   -2.38635
H      8.59310    0.06767   -2.59102
H      3.09540   -3.17303    1.42460
H      2.50587   -1.81469    2.41255
H      1.45171   -3.20554    2.13094
C      0.77677   -2.53228   -2.33283
H      0.43540   -3.31628   -3.01711
H     -0.00080   -1.76409   -2.29654
H      1.69080   -2.10263   -2.75463
C     -0.30895   -3.68407   -0.40213
H     -1.06633   -2.89845   -0.36243
H     -0.66959   -4.47677   -1.06631
H     -0.19722   -4.11846    0.59624
C      2.04825   -4.27550   -1.03436
H      2.19410   -4.76483   -0.06749
H      1.68217   -5.03386   -1.73504
H      3.01876   -3.92172   -1.38454
C      0.82438    1.06149   -3.20700
H     -0.07519    0.61293   -2.77676
H      0.56782    1.46042   -4.19411
H      1.57215    0.27631   -3.35460
C      2.55518    2.85530   -3.05759
H      3.35376    2.14011   -3.25163
H      2.19874    3.24273   -4.01888
H      2.98102    3.69076   -2.50305
C      0.25583    3.24097   -2.12697
H      0.62498    4.13544   -1.61853
H     -0.12608    3.55396   -3.10432
H     -0.57749    2.82404   -1.55420
C      3.86055    2.58913    0.86809
H      4.39541    3.00635    0.01215
H      4.10236    3.20917    1.73873
H      4.22897    1.57792    1.05173
C      1.88939    4.01591    0.22940
H      0.80590    4.06070    0.09136
H      2.16863    4.72840    1.01330
H      2.35525    4.34694   -0.69981
C      1.62827    2.23854    1.95237
H      0.54406    2.17939    1.81209
H      1.98070    1.28848    2.36057
H      1.82418    3.01480    2.69897
59
K:1,2;
P      1.52675   -1.73904    0.20125
P      1.70319    1.40424   -0.66008
C      2.22063   -2.57421    1.68226
C      1.02211   -3.14328   -0.94705
C      1.37092    2.20574   -2.33443
C      2.34748    2.60783    0.64296
C      3.17911    0.30813   -0.94636
C      3.10417   -1.07288   -0.54138
N      4.14661   -1.86257   -0.62430
N      4.28869    0.81306   -1.42988
C      5.36504   -0.00451   -1.54910
C      5.29574   -1.35452   -1.13558
C      6.43858   -2.18137   -1.25124
H      6.35802   -3.21126   -0.92469
C      6.57545    0.50379   -2.07783
C      7.59596   -1.66821   -1.76786
H      8.47357   -2.29728   -1.86120
C      7.66465   -0.31610   -2.18439
H      6.60249    1.54205   -2.38635
H      8.59310    0.06767   -2.59102
H      3.09540   -3.17303    1.42460
H      2.50587   -1.81469    2.41255
H      1.45171   -3.20554    2.13094
C      0.77677   -2.53228   -2.33283
H      0.43540   -3.31628   -3.01711
H     -0.00080   -1.76409   -2.29654
H      1.69080   -2.10263   -2.75463
C     -0.30895   -3.68407   -0.40213
H     -1.06633   -2.89845   -0.36243
H     -0.66959   -4.47677   -1.06631
H     -0.19722   -4.11846    0.59624
C      2.04825   -4.27550   -1.03436
H      2.19410   -4.76483   -0.06749
H      1.68217   -5.03386   -1.73504
H      3.01876   -3.92172   -1.38454
C      0.82438    1.06149   -3.20700
H     -0.07519    0.61293   -2.77676
H      0.56782    1.46042   -4.19411
H      1.57215    0.27631   -3.35460
C      2.55518    2.85530   -3.05759
H      3.35376    2.14011   -3.25163
H      2.19874    3.24273   -4.01888
H      2.98102    3.69076   -2.50305
C      0.25583    3.24097   -2.12697
H      0.62498    4.13544   -1.61853
H     -0.12608    3.55396   -3.10432
H     -0.57749    2.82404   -1.55420
C      3.86055    2.58913    0.86809
H      4.39541    3.00635    0.01215
H      4.10236    3.20917    1.73873
H      4.22897    1.57792    1.05173
C      1.88939    4.01591    0.22940
H      0.80590    4.06070    0.09136
H      2.16863    4.72840    1.01330
H      2.35525    4.34694   -0.69981
C      1.62827    2.23854    1.95237
H      0.54406    2.17939    1.81209
H      1.98070    1.28848    2.36057
H      1.82418    3.01480    2.69897
