12

C      0.16410   -1.37260   -0.00020
C     -1.10660   -0.82840    0.00010
C     -1.27070    0.54420   -0.00000
C     -0.16410    1.37260    0.00000
C      1.10660    0.82840    0.00060
C      1.27070   -0.54420   -0.00070
H      0.29230   -2.44490    0.00440
H     -1.97120   -1.47560    0.00000
H     -2.26350    0.96930   -0.00050
H     -0.29230    2.44490   -0.00080
H      1.97120    1.47560   -0.00010
H      2.26350   -0.96930    0.00020
