15
chlorotoluene.xyz
C     -1.23668   -0.39700    1.23668
C     -0.25015   -0.39700    0.25015
C      0.24308    0.81076   -0.24308
C     -0.25108    2.01926    0.24939
C     -1.23771    2.01919    1.23534
C     -1.73028    0.81098    1.72932
H     -1.62510   -1.34931    1.62573
H      0.13934   -1.34951   -0.13748
H      0.13793    2.97141   -0.13971
H     -1.62738    2.97147    1.62366
H     -2.50795    0.81116    2.50673
C      1.33265    0.81087   -1.33140
H      2.29787    0.79850   -0.86976
H      1.23611    1.69067   -1.93266
Cl     1.14905   -0.61583   -2.34551

