42
 K:10,11;2 F:1-25;20-25 L:1;20-42;8-19;2-7
H      1.57042   -0.12466    0.75967
N      2.07483    0.63829    1.27709
C      3.52813    2.48919    2.42946
H      4.56546    2.44174    2.03891
H      3.53805    2.32247    3.52625
H      3.09632    3.48756    2.21124
C      2.71673    1.45558    1.78606
C     -0.78178    1.41278   -0.91676
C     -1.92052    0.75673   -0.14679
N      0.46063    0.61087   -0.76895
N     -2.02700   -0.65288   -0.54245
H     -0.62979    2.32825   -0.57131
H     -2.77053    1.22495   -0.34110
H     -1.02245    1.48037   -1.87405
H     -1.74674    0.81905    0.82563
H      0.84617    0.77499    0.05000
H     -2.54691   -0.72348   -1.29795
H      1.06325    0.84073   -1.42400
H     -2.43053   -1.13329    0.12971
C      0.08674   -2.25333    0.03455
C      2.98547   -2.69856   -0.72142
C      0.81259   -3.60442   -0.18578
C      2.15196   -1.72968   -1.57417
O      2.25869   -3.54939    0.04116
O      1.23878   -1.10691   -0.68990
H      0.64510   -3.88327   -1.23202
H      1.60214   -2.32461   -2.32757
O     -1.02763   -2.13037   -0.52156
O      0.25891   -1.82030    1.38582
C     -0.95182   -1.51486    2.09859
H     -0.67048   -1.47671    3.15589
H     -1.70887   -2.29254    1.94162
H     -1.37065   -0.54918    1.79280
O      4.19708   -2.70252   -0.62783
C      0.26699   -4.68393    0.73511
H      0.45856   -4.42101    1.78074
H     -0.81385   -4.77379    0.58067
H      0.73885   -5.64649    0.50768
C      3.01624   -0.71930   -2.32103
H      3.71457   -0.21417   -1.64505
H      3.60761   -1.23002   -3.08964
H      2.37018    0.02178   -2.80489
