124
C:1 K:3,2;14;35;80 F:1-2;1-3;1-14;2-3;2-14
Cu     0.81824    0.27496    0.88427
C      1.44871    0.72306    2.72538
H      1.36951    1.75895    3.04986
H      1.22654    0.02094    3.52359
C      2.61607    0.41221    1.87271
H      3.05609   -0.56200    2.09568
C      3.69033    1.50698    1.81567
H      4.44987    1.28905    1.06132
H      3.22273    2.44600    1.50377
C      4.37189    1.68026    3.17210
H      3.65153    1.96547    3.94150
H      4.84448    0.74538    3.49054
H      5.14837    2.44920    3.12257
B      2.60936   -0.00137   -0.09496
O      3.38106   -1.14417    0.04946
C      4.35627   -1.20615   -1.00338
C      5.68634   -0.75809   -0.39736
H      5.61904    0.25769   -0.00208
H      5.93318   -1.42298    0.43292
H      6.49883   -0.79787   -1.12720
C      4.46596   -2.64966   -1.47441
H      5.16257   -2.73397   -2.31353
H      4.83968   -3.27033   -0.65699
H      3.49674   -3.04466   -1.78016
C      3.78146   -0.20583   -2.07676
C      2.95672   -0.87915   -3.17378
H      3.58208   -1.48468   -3.83460
H      2.17564   -1.51543   -2.75628
H      2.47315   -0.10260   -3.77032
C      4.82519    0.69912   -2.71893
H      5.57117    0.11031   -3.26082
H      4.33681    1.36862   -3.43021
H      5.33446    1.31158   -1.97506
O      2.88254    0.61022   -1.30768
C     -0.41903    1.71616   -0.29990
C     -0.85897    3.00951   -0.58748
N     -1.09613    4.23865   -0.10696
C     -1.63816    5.31212   -0.96324
H     -1.73230    4.86553   -1.95529
C     -3.04093    5.75300   -0.51736
H     -3.02534    6.21689    0.47508
H     -3.44390    6.49154   -1.21971
H     -3.72641    4.89977   -0.48314
C     -0.66869    6.49823   -1.08138
H      0.31190    6.16691   -1.43878
H     -1.06287    7.23601   -1.78944
H     -0.52764    7.00696   -0.12118
C     -0.83485    4.50502    1.33475
H     -1.11512    5.55285    1.48178
C     -1.72284    3.64186    2.24177
H     -1.47751    2.58042    2.13853
H     -2.78311    3.77908    2.00318
H     -1.56848    3.92424    3.28946
C      0.65397    4.35750    1.67652
H      0.82770    4.66026    2.71554
H      1.27116    4.98908    1.02811
H      0.97951    3.31857    1.56810
C     -0.84220    2.05265   -1.58731
N     -1.01792    1.55146   -2.81835
C     -0.67285    0.11604   -3.01103
H     -0.29559   -0.21106   -2.03812
C      0.45269   -0.06267   -4.03802
H      1.33542    0.51898   -3.75279
H      0.74257   -1.11804   -4.08854
H      0.14748    0.24137   -5.04684
C     -1.91159   -0.72654   -3.34134
H     -2.35278   -0.45476   -4.30836
H     -1.63594   -1.78561   -3.39222
H     -2.67487   -0.61344   -2.56486
C     -1.56488    2.33473   -3.94507
H     -1.59778    1.63511   -4.78516
C     -3.00776    2.79039   -3.68195
H     -3.07317    3.45364   -2.81384
H     -3.40113    3.33249   -4.54936
H     -3.65530    1.92873   -3.49170
C     -0.62836    3.48251   -4.35052
H      0.35803    3.09598   -4.62591
H     -1.03816    4.02550   -5.20974
H     -0.48839    4.19990   -3.53566
C     -0.75889   -2.80450    0.80367
C     -0.66985   -1.42606    0.60128
N     -0.08617   -3.95491    0.95181
C     -0.78623   -5.24225    1.13085
H     -1.84877   -4.99041    1.13893
C     -0.54465   -6.19910   -0.04686
H      0.50633   -6.50055   -0.11718
H     -1.14062   -7.11000    0.08044
H     -0.82835   -5.73111   -0.99530
C     -0.45610   -5.89317    2.48288
H     -0.67361   -5.20852    3.30932
H     -1.05595   -6.80018    2.61914
H      0.59840   -6.18355    2.54914
C      1.40177   -3.92467    0.89811
H      1.70843   -4.96753    1.02657
C      1.91108   -3.44234   -0.46725
H      1.63651   -2.39782   -0.64357
H      1.50135   -4.05209   -1.27981
H      3.00409   -3.51521   -0.50235
C      1.99310   -3.10810    2.05514
H      3.08597   -3.19168    2.04744
H      1.73425   -2.04935    1.95955
H      1.62857   -3.47356    3.02148
C     -1.91476   -2.04911    0.70955
N     -3.23375   -1.80962    0.68878
C     -3.65321   -0.39698    0.47632
H     -2.71640    0.16396    0.41619
C     -4.45050    0.14254    1.67078
H     -3.87937    0.03743    2.59902
H     -4.66450    1.20668    1.52178
H     -5.41225   -0.37028    1.79474
C     -4.39331   -0.21842   -0.85555
H     -5.34886   -0.75711   -0.87501
H     -4.61125    0.84279   -1.01841
H     -3.77774   -0.56848   -1.69032
C     -4.25497   -2.86869    0.82166
H     -5.21344   -2.34773    0.74255
C     -4.19313   -3.87583   -0.33619
H     -3.23506   -4.40407   -0.36535
H     -4.98671   -4.62465   -0.23364
H     -4.32176   -3.36705   -1.29669
C     -4.21445   -3.53053    2.20701
H     -4.36401   -2.78519    2.99462
H     -5.00325   -4.28641    2.29327
H     -3.25514   -4.02347    2.39396
