85
C:34 L:35-93 K:1,2 F:1-34;1-2;2-34;2-3;3-34
C      1.44871    0.72306    2.72538
C      2.61607    0.41221    1.87271
H      1.36951    1.75895    3.04986
H      1.22654    0.02094    3.52359
C      3.69033    1.50698    1.81567
H      3.05609   -0.56200    2.09568
C      4.37189    1.68026    3.17210
H      3.22273    2.44600    1.50377
H      4.44987    1.28905    1.06132
H      5.14837    2.44920    3.12257
H      4.84448    0.74538    3.49054
H      3.65153    1.96547    3.94150
B      2.60936   -0.00137   -0.09496
O      3.11888    0.94445   -0.96970
O      3.12202   -1.25461   -0.39319
C      3.91234    0.30047   -1.98024
C      4.16719   -1.13015   -1.37067
C      5.17343    1.12570   -2.20234
C      3.08624    0.28891   -3.26649
C      5.49129   -1.24842   -0.61577
C      4.03721   -2.27652   -2.36393
H      4.90105    2.10342   -2.60551
H      5.83958    0.63465   -2.91784
H      5.71559    1.28489   -1.27040
H      3.64349   -0.14587   -4.10008
H      2.82805    1.31879   -3.52227
H      2.15694   -0.26811   -3.14246
H      6.34952   -1.18941   -1.28982
H      5.51701   -2.21335   -0.10526
H      5.58594   -0.46790    0.14214
H      4.19668   -3.22484   -1.84594
H      4.78471   -2.19093   -3.15792
H      3.04511   -2.30303   -2.81551
Cu     0.81824    0.27496    0.88427
O     -2.21214    2.33195   -1.35064
O     -2.15098   -2.28942   -0.72977
N     -0.43419    1.52625   -0.24543
N     -0.65469   -1.23615    0.54681
C     -0.04164    2.92220   -0.67689
C     -1.38521    3.51657   -1.05592
C     -1.59925    1.31764   -0.71662
C     -2.45279    0.07123   -0.61645
C     -1.65997   -1.15541   -0.23119
C     -1.31071   -3.37300   -0.21852
C     -0.27304   -2.66452    0.68168
C      0.99332    2.79019   -1.80960
C     -0.30785   -3.17117    2.13553
C     -3.49230    0.32006    0.49245
C     -3.15636   -0.17352   -1.95690
H      0.38197    3.38914    0.06608
H     -1.38253    4.14778   -1.88329
H     -1.82854    3.99467   -0.26704
H     -1.92554   -4.01489    0.24817
H     -0.90514   -3.83585   -1.00443
H      0.66198   -2.70027    0.32724
H     -4.10851   -0.43645    0.56818
H     -3.06798    0.55033    1.26345
H     -3.97306    1.12001    0.21692
H     -3.68387   -0.92251   -1.92204
H     -3.48057    0.66026   -2.22260
H     -2.52672   -0.38311   -2.68784
C     -1.71250   -3.55929    2.63033
H     -1.64543   -3.90727    3.66752
H     -2.13976   -4.36714    2.02450
H     -2.39696   -2.70328    2.59940
C      0.23834   -2.05928    3.06074
H      1.25704   -1.77321    2.77775
H      0.25583   -2.41326    4.09941
H     -0.39644   -1.16693    3.00616
C      0.60306   -4.41544    2.24764
H      0.62214   -4.77169    3.28550
H      1.62974   -4.18335    1.94473
H      0.23075   -5.22387    1.60730
C      1.76000    1.45577   -1.80544
H      2.47069    1.44629   -2.63981
H      1.07952    0.60437   -1.92485
H      2.32284    1.32201   -0.87403
C      2.02196    3.93688   -1.67675
H      1.53171    4.91553   -1.71625
H      2.74934    3.88254   -2.49677
H      2.56157    3.86146   -0.72525
C      0.26199    2.92117   -3.16553
H      0.98719    2.86689   -3.98746
H     -0.26954    3.87609   -3.23831
H     -0.46756    2.11202   -3.28899
