85
C:34 L:35-93 K:1,2 F:1-34;1-2;2-34;2-3;3-34
C      1.44871    0.72306    2.72538
C      2.61607    0.41221    1.87271
H      1.36951    1.75895    3.04986
H      1.22654    0.02094    3.52359
C      3.69033    1.50698    1.81567
H      3.05609   -0.56200    2.09568
C      4.37189    1.68026    3.17210
H      3.22273    2.44600    1.50377
H      4.44987    1.28905    1.06132
H      5.14837    2.44920    3.12257
H      4.84448    0.74538    3.49054
H      3.65153    1.96547    3.94150
B      2.60936   -0.00137   -0.09496
O      3.11888    0.94445   -0.96970
O      3.12202   -1.25461   -0.39319
C      3.91234    0.30047   -1.98024
C      4.16719   -1.13015   -1.37067
C      5.17343    1.12570   -2.20234
C      3.08624    0.28891   -3.26649
C      5.49129   -1.24842   -0.61577
C      4.03721   -2.27652   -2.36393
H      4.90105    2.10342   -2.60551
H      5.83958    0.63465   -2.91784
H      5.71559    1.28489   -1.27040
H      3.64349   -0.14587   -4.10008
H      2.82805    1.31879   -3.52227
H      2.15694   -0.26811   -3.14246
H      6.34952   -1.18941   -1.28982
H      5.51701   -2.21335   -0.10526
H      5.58594   -0.46790    0.14214
H      4.19668   -3.22484   -1.84594
H      4.78471   -2.19093   -3.15792
H      3.04511   -2.30303   -2.81551
Cu     0.81824    0.27496    0.88427
O     -2.39284    2.58416   -0.52155
O     -2.65715   -2.04399   -0.01488
N     -0.43419    1.52625   -0.24543
N     -0.65469   -1.23615    0.54681
C     -0.08062    2.89315   -0.78904
C     -1.37797    3.65206   -0.58148
C     -1.70628    1.47406   -0.20100
C     -2.59312    0.32512    0.22974
C     -1.87040   -1.00114    0.24812
C     -1.82278   -3.24072    0.10018
C     -0.43077   -2.70313    0.50314
C      0.38250    2.71358   -2.24674
C      0.06337   -3.28544    1.84043
C     -3.05557    0.62247    1.66845
C     -3.80324    0.23629   -0.70802
H      0.66152    3.26743   -0.28050
H     -1.63234    4.32557   -1.33291
H     -1.40139    4.12987    0.32328
H     -2.27034   -3.83700    0.77248
H     -1.83048   -3.69943   -0.78632
H      0.26861   -2.82085   -0.20267
H     -3.67674   -0.06497    1.98362
H     -2.33067    0.76022    2.20049
H     -3.50385    1.48481    1.61948
H     -4.35964   -0.45107   -0.46634
H     -4.10152    1.11446   -0.81174
H     -3.55439    0.00116   -1.63400
C     -1.05712   -3.54487    2.86303
H     -0.61965   -3.95701    3.77961
H     -1.78919   -4.26490    2.47857
H     -1.58406   -2.61859    3.12096
C      1.07001   -2.29506    2.47009
H      1.91388   -2.10670    1.79773
H      1.46241   -2.70780    3.40824
H      0.58300   -1.33682    2.68641
C      0.78038   -4.62648    1.56112
H      1.17361   -5.04161    2.49786
H      1.61675   -4.49143    0.86691
H      0.08405   -5.35115    1.12271
C      0.91402    1.30508   -2.56631
H      1.21918    1.26557   -3.61829
H      0.14393    0.54172   -2.40370
H      1.78436    1.05720   -1.94723
C      1.50998    3.73099   -2.53711
H      1.17069    4.75817   -2.36543
H      1.83053    3.64431   -3.58315
H      2.37460    3.54241   -1.88975
C     -0.81262    3.00152   -3.18444
H     -0.49480    2.91524   -4.23134
H     -1.20571    4.01157   -3.02645
H     -1.62359    2.28570   -3.00516
