76
 K:29,40,41 F:1-7;2-7 L:1;2-24;25-76
H      1.57042   -0.12466    0.75967
C      0.08674   -2.25333    0.03455
C      2.98547   -2.69856   -0.72142
C      0.81259   -3.60442   -0.18578
C      2.15196   -1.72968   -1.57417
O      2.25869   -3.54939    0.04116
O      1.23878   -1.10691   -0.68990
H      0.64510   -3.88327   -1.23202
H      1.60214   -2.32461   -2.32757
O     -1.02763   -2.13037   -0.52156
O      0.25891   -1.82030    1.38582
C     -0.95182   -1.51486    2.09859
H     -0.67048   -1.47671    3.15589
H     -1.70887   -2.29254    1.94162
H     -1.37065   -0.54918    1.79280
O      4.19708   -2.70252   -0.62783
C      0.26699   -4.68393    0.73511
H      0.73885   -5.64649    0.50768
H     -0.81385   -4.77379    0.58067
H      0.45856   -4.42101    1.78074
C      3.01624   -0.71930   -2.32103
H      3.60761   -1.23002   -3.08964
H      3.71457   -0.21417   -1.64505
H      2.37018    0.02178   -2.80489
C     -2.33988    1.37573   -0.34480
C     -1.06662    1.98256   -0.44298
C     -3.01752    2.67799   -0.11579
C     -1.64297    3.33703   -0.24390
N      1.98396    0.83273    1.42154
C      2.47119    1.46533    0.18523
C      1.37161    2.32828   -0.48210
N     -2.64959    0.05776   -0.43694
N      0.15371    1.52963   -0.69614
C      3.76588    2.29605    0.33351
C      1.85456    2.89315   -1.82668
C      4.24882    2.83859   -1.01816
C      3.15458    3.69524   -1.67030
H      2.68165    0.64346   -0.51543
H      1.09536    3.15075    0.18305
H     -1.86583   -0.57100   -0.55712
H      0.29946    0.52899   -0.75428
H      4.53742    1.67385    0.80140
H      3.57262    3.13995    1.00797
H      2.02846    2.05196   -2.51429
H      1.06073    3.51331   -2.25784
H      4.49529    1.99785   -1.68246
H      5.16490    3.42642   -0.88322
H      3.48072    4.06218   -2.65056
H      2.96108    4.57465   -1.04011
C     -5.10449    0.12808   -0.27508
C     -5.13091   -2.66120   -0.44582
C     -6.30679   -0.57937   -0.25034
C     -3.91785   -1.97858   -0.48056
C     -6.34153   -1.97267   -0.33273
H     -2.98666   -2.52861   -0.57104
H     -5.10288    1.21028   -0.19948
H     -7.28200   -2.50864   -0.30965
C     -5.14609   -4.16544   -0.60280
C     -7.59723    0.18946   -0.06061
F     -5.29677   -4.52472   -1.91397
F     -8.67109   -0.45959   -0.58673
F     -6.16924   -4.74559    0.07970
F     -7.55729    1.42200   -0.63184
F     -3.99541   -4.74853   -0.16963
F     -7.86641    0.38007    1.26677
C      3.07221    0.27218    2.22051
H      3.75068    1.04374    2.63453
H      3.66494   -0.41599    1.60606
H      2.64690   -0.28712    3.06253
C      1.13573    1.69691    2.24665
H      1.70099    2.50987    2.73971
H      0.34139    2.14029    1.64107
H      0.66874    1.08573    3.02787
C     -3.89792   -0.57618   -0.39310
O     -4.15668    3.08020    0.08317
O     -1.20610    4.47733   -0.21222
