124
C:1 K:2,3;14;35;80 F:1-2;1-3;1-14;2-3;2-14 L:2-13;14-34;35-79;80-124
Cu     0.81824    0.27496    0.88427
C      2.61607    0.41221    1.87271
C      1.44871    0.72306    2.72538
H      3.05609   -0.56200    2.09568
H      1.36951    1.75895    3.04986
H      1.22654    0.02094    3.52359
C      4.37189    1.68026    3.17210
H      5.14837    2.44920    3.12257
H      4.84448    0.74538    3.49054
H      3.65153    1.96547    3.94150
C      3.69033    1.50698    1.81567
H      3.22273    2.44600    1.50377
H      4.44987    1.28905    1.06132
B      2.60936   -0.00137   -0.09496
C      4.72867    0.50454   -2.84057
H      4.18262    1.04068   -3.61970
H      5.50662   -0.09650   -3.32053
H      5.20397    1.24211   -2.19413
C      2.97164   -1.24495   -3.04327
H      3.62867   -1.88632   -3.63604
H      2.42445   -0.58771   -3.72251
H      2.24477   -1.87424   -2.52858
C      5.72775   -0.57603   -0.37300
H      6.52972   -0.65379   -1.11137
H      6.03440   -1.10889    0.52944
H      5.59373    0.47533   -0.10979
C      4.63002   -2.67126   -1.16823
H      5.05984   -3.15326   -0.28733
H      5.31794   -2.81527   -2.00639
H      3.68710   -3.16874   -1.39695
O      3.46328   -1.05957    0.17597
O      2.81928    0.46517   -1.38245
C      3.76260   -0.37953   -2.06223
C      4.42416   -1.18994   -0.88377
C     -0.41903    1.71616   -0.29990
C     -1.14506   -0.09824   -2.78100
C     -0.29720   -0.23375   -4.05232
C     -2.31663   -1.08802   -2.74542
H     -0.50128   -0.31104   -1.92302
H     -0.87790   -0.03894   -4.96235
H     -3.01376   -0.93634   -3.57888
H      0.55231    0.45664   -4.02870
H     -2.87073   -0.99821   -1.80562
H      0.09553   -1.25380   -4.12748
H     -1.93722   -2.11325   -2.81712
C     -2.18738    5.10563   -0.79155
C     -3.47765    5.42905   -0.02245
C     -1.42734    6.37467   -1.20695
H     -2.47093    4.57935   -1.70539
H     -4.12826    6.06725   -0.63116
H     -2.07083    7.01262   -1.82340
H     -4.02555    4.51364    0.22430
H     -0.53398    6.12227   -1.78769
H     -3.27157    5.96430    0.91105
H     -1.11408    6.96514   -0.33868
C     -2.50100    1.93952   -3.55541
C     -1.83950    3.14582   -4.23814
C     -3.87706    2.25986   -2.95323
H     -2.65755    1.17997   -4.32670
H     -1.58846    3.93232   -3.51937
H     -3.80368    2.97512   -2.12812
H     -2.51220    3.57773   -4.98776
H     -4.53590    2.69201   -3.71493
H     -0.91353    2.84533   -4.73865
H     -4.34868    1.35162   -2.56511
C     -0.74698    4.55959    1.25897
C     -1.27129    3.67782    2.40082
C      0.78665    4.59449    1.21529
H     -1.10558    5.58032    1.42521
H     -2.36614    3.68523    2.43510
H      1.14280    5.23741    0.40285
H     -0.89632    4.05168    3.36042
H      1.17565    4.98994    2.16065
H     -0.93375    2.64318    2.28641
H      1.19729    3.59019    1.07436
N     -1.60111    1.30348   -2.57163
N     -1.32462    4.16122   -0.05457
C     -1.18627    1.91016   -1.45030
C     -1.06863    2.93145   -0.52368
C     -0.66985   -1.42606    0.60128
C      1.21750   -3.58864   -0.71637
C      1.48360   -3.72735   -2.22084
C      2.11490   -4.50273    0.12780
H      1.43049   -2.55468   -0.43099
H      1.29598   -4.74517   -2.58438
H      1.95751   -5.56434   -0.09992
H      0.85742   -3.03422   -2.79211
H      1.93386   -4.34381    1.19564
H      2.53238   -3.49254   -2.43371
H      3.16767   -4.27626   -0.07362
C     -4.14888   -3.03166    1.02038
C     -4.60757   -3.54778    2.39302
C     -5.33417   -2.66952    0.11229
H     -3.59632   -3.83740    0.53257
H     -5.25816   -4.42086    2.26821
H     -5.98356   -3.54190   -0.02294
H     -3.74970   -3.84187    3.00670
H     -4.98562   -2.34304   -0.87309
H     -5.17583   -2.78989    2.94354
H     -5.94599   -1.86764    0.54051
C     -0.86981   -5.08197   -0.65457
C     -1.98543   -4.96550   -1.70370
C     -1.32274   -5.76954    0.64191
H     -0.08331   -5.70499   -1.08997
H     -2.78898   -4.30111   -1.37034
H     -2.07417   -5.17868    1.17484
H     -2.42461   -5.94894   -1.90615
H     -1.76048   -6.74974    0.42143
H     -1.59093   -4.56453   -2.64275
H     -0.47402   -5.91549    1.31744
C     -3.60977   -0.63800    1.76685
C     -2.83201   -0.35233    3.05902
C     -3.52916    0.53056    0.77531
H     -4.66164   -0.78914    2.02924
H     -2.92191   -1.18384    3.76644
H     -4.09925    0.31449   -0.13495
H     -3.22851    0.54969    3.53897
H     -3.94536    1.43510    1.23354
H     -1.77064   -0.18547    2.85127
H     -2.49118    0.73850    0.49876
N     -0.22327   -3.77969   -0.39339
N     -3.18467   -1.92019    1.13993
C     -0.85743   -2.73979    0.16697
C     -1.91584   -2.04362    0.72429
