76
 K:5,16,17 L:25-76 F:1-7;2-7
H      1.57042   -0.12466    0.75967
C      0.08674   -2.25333    0.03455
C      2.98547   -2.69856   -0.72142
C      0.81259   -3.60442   -0.18578
C      2.15196   -1.72968   -1.57417
O      2.25869   -3.54939    0.04116
O      1.23878   -1.10691   -0.68990
H      0.64510   -3.88327   -1.23202
H      1.60214   -2.32461   -2.32757
O     -1.02763   -2.13037   -0.52156
O      0.25891   -1.82030    1.38582
C     -0.95182   -1.51486    2.09859
H     -0.67048   -1.47671    3.15589
H     -1.70887   -2.29254    1.94162
H     -1.37065   -0.54918    1.79280
O      4.19708   -2.70252   -0.62783
C      0.26699   -4.68393    0.73511
H     -0.81385   -4.77379    0.58067
H      0.45856   -4.42101    1.78074
H      0.73885   -5.64649    0.50768
C      3.01624   -0.71930   -2.32103
H      3.60761   -1.23002   -3.08964
H      3.71457   -0.21417   -1.64505
H      2.37018    0.02178   -2.80489
C     -2.29985    1.34162   -0.09551
C     -1.02612    1.94667   -0.19843
C     -2.94505    2.61359    0.32080
C     -1.57122    3.27324    0.18822
N      1.99989    0.69928    1.50191
C      2.49313    1.36385    0.28490
C      1.41033    2.27729   -0.34140
N     -2.63257    0.04527   -0.31966
N      0.17117    1.51728   -0.57335
C      3.80934    2.15638    0.45162
C      1.89674    2.87821   -1.66900
C      4.29513    2.73524   -0.88386
C      3.21764    3.64170   -1.49526
H      2.67745    0.56286   -0.44662
H      1.15997    3.08179    0.35524
H     -1.86583   -0.57100   -0.55712
H      0.29946    0.52899   -0.75428
H      4.56869    1.49878    0.89013
H      3.64256    2.97989    1.15760
H      1.11536    3.53299   -2.07067
H      2.04414    2.05835   -2.38785
H      4.51527    1.91320   -1.58003
H      5.22668    3.29496   -0.73588
H      3.05116    4.50231   -0.83223
H      3.54519    4.03562   -2.46451
F     -6.18259   -4.76052   -0.15022
F     -4.02704   -4.75014   -0.52602
F     -8.65924   -0.40864   -0.17234
F     -7.52399    1.45767   -0.06713
F     -5.42378   -4.31761   -2.15340
F     -7.73729    0.20615    1.71447
C     -5.07281    0.11389   -0.00630
C     -5.19265   -4.11288   -0.82088
C     -7.54790    0.16783    0.36044
C     -5.14762   -2.63688   -0.49372
C     -6.28134   -0.58315    0.00807
C     -3.92927   -1.96344   -0.52148
C     -6.34005   -1.95740   -0.23126
H     -3.01256   -2.50597   -0.72916
H     -5.05187    1.18013    0.19259
H     -7.28494   -2.48577   -0.21433
O     -4.06515    2.99827    0.63138
O     -1.11752    4.39916    0.32455
C      1.56118    1.61896    2.55491
H      1.03574    1.04305    3.32573
H      0.86590    2.35796    2.14902
H      2.40168    2.15135    3.03829
C      2.96257   -0.26378    2.03351
H      3.88771    0.21081    2.41552
H      3.23910   -0.98010    1.25064
H      2.49980   -0.81204    2.86294
C     -3.88493   -0.58062   -0.27521
