85

C      1.44871    0.72306    2.72538
C      2.61607    0.41221    1.87271
H      1.36951    1.75895    3.04986
H      1.22654    0.02094    3.52359
H      3.05609   -0.56200    2.09568
C      3.69033    1.50698    1.81567
C      4.37189    1.68026    3.17210
H      3.22273    2.44600    1.50377
H      4.44987    1.28905    1.06132
H      4.84448    0.74538    3.49054
H      3.65153    1.96547    3.94150
H      5.14837    2.44920    3.12257
B      2.60936   -0.00137   -0.09496
O      3.11888    0.94445   -0.96970
O      3.12202   -1.25461   -0.39319
C      3.91234    0.30047   -1.98024
C      4.16719   -1.13015   -1.37067
C      5.17343    1.12570   -2.20234
H      4.90105    2.10342   -2.60551
H      5.83958    0.63465   -2.91784
H      5.71559    1.28489   -1.27040
C      3.08624    0.28891   -3.26649
H      3.64349   -0.14587   -4.10008
H      2.82805    1.31879   -3.52227
H      2.15694   -0.26811   -3.14246
C      5.49129   -1.24842   -0.61577
H      6.34952   -1.18941   -1.28982
H      5.51701   -2.21335   -0.10526
H      5.58594   -0.46790    0.14214
C      4.03721   -2.27652   -2.36393
H      4.19668   -3.22484   -1.84594
H      4.78471   -2.19093   -3.15792
H      3.04511   -2.30303   -2.81551
Cu     0.81824    0.27496    0.88427
O     -2.35921    2.47243   -0.90176
O     -2.47232   -2.15803   -0.36109
N     -0.43419    1.52625   -0.24543
N     -0.65469   -1.23615    0.54681
C     -0.05696    2.90505   -0.74094
C     -1.40794    3.59371   -0.79325
C     -1.68775    1.40484   -0.43717
C     -2.57841    0.21331   -0.15600
C     -1.80383   -1.07109    0.02276
C     -1.61299   -3.30604   -0.06917
C     -0.35055   -2.68901    0.57471
H      0.55672    3.32445   -0.11087
H     -1.55226    4.24484   -1.59211
H     -1.62465    4.07841    0.08170
H     -2.14655   -3.91930    0.51995
H     -1.43121   -3.77319   -0.93236
H      0.47344   -2.77515    0.01366
C      0.39884    3.03731   -2.20598
C      0.71367    1.69405   -2.88792
C      1.67394    3.91066   -2.25106
C     -0.72124    3.73539   -3.01135
H      1.02771    1.87989   -3.92145
H     -0.16711    1.04138   -2.90919
H      1.52463    1.16561   -2.37285
H      1.49318    4.89864   -1.81415
H      1.99584    4.04761   -3.29130
H      2.48784    3.43242   -1.69334
H     -0.40196    3.87336   -4.05225
H     -0.95754    4.71876   -2.59084
H     -1.63542    3.13005   -3.00340
C     -0.08510   -3.23016    1.99185
C      0.73340   -2.17994    2.77780
C      0.74022   -4.53257    1.87740
C     -1.36173   -3.54054    2.79334
H      1.67699   -1.95224    2.27039
H      0.96472   -2.56129    3.78056
H      0.16540   -1.24775    2.88074
H      0.97273   -4.91627    2.87897
H      1.68329   -4.35871    1.34818
H      0.17662   -5.29859    1.33171
H     -1.97071   -4.30337    2.29391
H     -1.97502   -2.64204    2.93036
H     -1.08221   -3.91904    3.78327
C     -3.31611    0.49902    1.16549
H     -3.94858   -0.21830    1.37333
H     -2.71144    0.68153    1.82014
H     -3.79161    1.33496    1.01692
C     -3.58594    0.04906   -1.30038
H     -4.14115   -0.66536   -1.15269
H     -3.90488    0.90849   -1.47517
H     -3.15673   -0.18118   -2.15911
