85
C:1 K:3,2;14;40,41 F:1-2;1-3;1-14;2-3;2-14
Cu     0.81824    0.27496    0.88427
C      1.44871    0.72306    2.72538
H      1.22654    0.02094    3.52359
H      1.36951    1.75895    3.04986
C      2.61607    0.41221    1.87271
H      3.05609   -0.56200    2.09568
C      3.69033    1.50698    1.81567
H      3.22273    2.44600    1.50377
H      4.44987    1.28905    1.06132
C      4.37189    1.68026    3.17210
H      4.84448    0.74538    3.49054
H      5.14837    2.44920    3.12257
H      3.65153    1.96547    3.94150
B      2.60936   -0.00137   -0.09496
O      3.32779   -1.18108    0.01223
C      4.73217   -0.91514   -0.13764
C      5.33682   -1.99824   -1.02194
H      4.81243   -2.07487   -1.97428
H      6.39417   -1.79663   -1.21735
H      5.26140   -2.96343   -0.51658
C      5.35975   -0.99418    1.25409
H      5.15741   -1.98343    1.67025
H      4.93268   -0.25290    1.93038
H      6.44228   -0.84846    1.21747
C      4.75283    0.52909   -0.76769
C      5.80536    1.46177   -0.18469
H      5.67173    1.59289    0.88948
H      6.81254    1.07798   -0.37125
H      5.72138    2.44326   -0.65659
C      4.84869    0.53153   -2.29344
H      4.70670    1.55367   -2.65043
H      5.82210    0.17509   -2.63958
H      4.06869   -0.08873   -2.74007
O      3.45400    1.04435   -0.43471
N     -0.65469   -1.23615    0.54681
C     -0.35055   -2.68901    0.57471
H      0.47344   -2.77515    0.01366
C     -1.61299   -3.30604   -0.06917
H     -2.14655   -3.91930    0.51995
H     -1.43121   -3.77319   -0.93236
O     -2.47232   -2.15803   -0.36109
C     -0.08510   -3.23016    1.99185
C     -1.36173   -3.54054    2.79334
H     -1.97071   -4.30337    2.29391
H     -1.97502   -2.64204    2.93036
H     -1.08221   -3.91904    3.78327
C      0.73340   -2.17994    2.77780
H      0.16540   -1.24775    2.88074
H      0.96472   -2.56129    3.78056
H      1.67699   -1.95224    2.27039
C      0.74022   -4.53257    1.87740
H      0.97273   -4.91627    2.87897
H      1.68329   -4.35871    1.34818
H      0.17662   -5.29859    1.33171
C     -1.80383   -1.07109    0.02276
C     -2.57841    0.21331   -0.15600
C     -3.58594    0.04906   -1.30038
H     -4.14115   -0.66536   -1.15269
H     -3.15673   -0.18118   -2.15911
H     -3.90488    0.90849   -1.47517
C     -3.31611    0.49902    1.16549
H     -3.79161    1.33496    1.01692
H     -2.71144    0.68153    1.82014
H     -3.94858   -0.21830    1.37333
C     -1.68775    1.40484   -0.43717
O     -2.35921    2.47243   -0.90176
C     -1.40794    3.59371   -0.79325
H     -1.55226    4.24484   -1.59211
H     -1.62465    4.07841    0.08170
C     -0.05696    2.90505   -0.74094
H      0.55672    3.32445   -0.11087
C      0.67882    2.73681   -2.08329
C     -0.33359    2.94955   -3.23232
H     -0.80127    3.93805   -3.17026
H     -1.12542    2.19215   -3.19268
H      0.17810    2.87052   -4.19998
C      1.33318    1.35648   -2.27043
H      0.58705    0.55369   -2.23863
H      1.83098    1.32340   -3.24637
H      2.08437    1.16279   -1.49557
C      1.78620    3.81158   -2.17923
H      2.30044    3.73231   -3.14553
H      2.52341    3.67706   -1.37884
H      1.36786    4.82025   -2.09407
N     -0.43419    1.52625   -0.24543
