76
 K:29,40,41 F:1-9;3-9 L:1;2-24;25-76
H      1.57042   -0.12466    0.75967
C      2.98547   -2.69856   -0.72142
C      0.08674   -2.25333    0.03455
C      0.81259   -3.60442   -0.18578
O      2.25869   -3.54939    0.04116
H      0.64510   -3.88327   -1.23202
O      4.19708   -2.70252   -0.62783
C      2.15196   -1.72968   -1.57417
O      1.23878   -1.10691   -0.68990
C      3.01624   -0.71930   -2.32103
H      1.60214   -2.32461   -2.32757
H      3.60761   -1.23002   -3.08964
H      3.71457   -0.21417   -1.64505
H      2.37018    0.02178   -2.80489
O     -1.02763   -2.13037   -0.52156
O      0.25891   -1.82030    1.38582
C     -0.95182   -1.51486    2.09859
H     -0.67048   -1.47671    3.15589
H     -1.70887   -2.29254    1.94162
H     -1.37065   -0.54918    1.79280
C      0.26699   -4.68393    0.73511
H      0.73885   -5.64649    0.50768
H     -0.81385   -4.77379    0.58067
H      0.45856   -4.42101    1.78074
C     -1.89349    1.01686    0.70181
C     -0.67519    1.66259    0.38898
C     -2.22744    2.01004    1.75518
C     -0.91999    2.72124    1.40178
N      2.22868    0.64859    1.45127
C      2.65046    1.16058    0.13750
C      1.58961    2.11327   -0.46753
N     -2.41199   -0.10834    0.14816
N      0.27473    1.45292   -0.51219
C      4.03787    1.84065    0.10734
C      1.98823    2.55342   -1.88441
C      4.43326    2.25832   -1.31527
C      3.37858    3.20485   -1.90536
H      2.69334    0.28742   -0.53067
H      1.47803    2.99300    0.17186
H     -1.83737   -0.55902   -0.55239
H      0.23340    0.61316   -1.07699
H      4.78034    1.15560    0.53250
H      4.01168    2.73241    0.74647
H      1.99422    1.66599   -2.53485
H      1.22737    3.24079   -2.27076
H      4.51346    1.36397   -1.94977
H      5.41811    2.74098   -1.30679
H      3.63857    3.48426   -2.93310
H      3.35145    4.12977   -1.31227
C     -4.58226   -0.25497    1.29973
C     -5.09593   -2.61457   -0.10680
C     -5.77881   -0.94962    1.47956
C     -3.89712   -1.93626   -0.31030
C     -6.05398   -2.13083    0.78797
H     -3.16463   -2.32454   -1.01068
H     -4.38732    0.65557    1.85633
H     -6.98589   -2.66077    0.93959
C     -5.39831   -3.85591   -0.91628
C     -6.76858   -0.43675    2.50409
F     -6.08585   -3.54711   -2.05772
F     -8.04695   -0.80834    2.22318
F     -6.16344   -4.74630   -0.22998
F     -6.76000    0.91871    2.60268
F     -4.27264   -4.51353   -1.30629
F     -6.48409   -0.92320    3.75035
C      2.91065   -0.59545    1.80359
H      3.99784   -0.46399    1.97033
H      2.76994   -1.33292    1.00434
H      2.47522   -0.99303    2.72828
C      2.34204    1.62098    2.54154
H      3.39097    1.83089    2.82301
H      1.85920    2.56132    2.26421
H      1.82770    1.21998    3.42278
C     -3.63217   -0.75031    0.39548
O     -3.13144    2.20574    2.55739
O     -0.33525    3.72684    1.77460
