85
C:34 K:5,7 L:35-85 F:1-2;1-34;2-13;2-34;13-34
C      1.44871    0.72306    2.72538
C      2.61607    0.41221    1.87271
H      1.36951    1.75895    3.04986
H      1.22654    0.02094    3.52359
H      3.05609   -0.56200    2.09568
C      3.69033    1.50698    1.81567
C      4.37189    1.68026    3.17210
H      3.22273    2.44600    1.50377
H      4.44987    1.28905    1.06132
H      5.14837    2.44920    3.12257
H      4.84448    0.74538    3.49054
H      3.65153    1.96547    3.94150
B      2.60936   -0.00137   -0.09496
O      3.11888    0.94445   -0.96970
O      3.12202   -1.25461   -0.39319
C      3.91234    0.30047   -1.98024
C      4.16719   -1.13015   -1.37067
C      5.17343    1.12570   -2.20234
H      4.90105    2.10342   -2.60551
H      5.83958    0.63465   -2.91784
H      5.71559    1.28489   -1.27040
C      3.08624    0.28891   -3.26649
H      3.64349   -0.14587   -4.10008
H      2.82805    1.31879   -3.52227
H      2.15694   -0.26811   -3.14246
C      5.49129   -1.24842   -0.61577
H      6.34952   -1.18941   -1.28982
H      5.51701   -2.21335   -0.10526
H      5.58594   -0.46790    0.14214
C      4.03721   -2.27652   -2.36393
H      4.19668   -3.22484   -1.84594
H      4.78471   -2.19093   -3.15792
H      3.04511   -2.30303   -2.81551
Cu     0.81824    0.27496    0.88427
C     -2.49927    0.11060   -0.49210
C     -1.63087    1.34172   -0.64144
C     -1.70630   -1.13254   -0.16436
C     -3.29215   -0.11352   -1.78548
N     -0.43419    1.52625   -0.24543
O     -2.26428    2.37071   -1.22999
N     -0.65469   -1.23615    0.54681
O     -2.24947   -2.25449   -0.63539
H     -3.83019   -0.85290   -1.72008
H     -3.61719    0.72757   -2.02593
H     -2.71491   -0.33041   -2.55645
C     -0.04427    2.91723   -0.69496
C     -1.39815    3.53827   -0.98384
C     -0.29185   -2.67202    0.65029
C     -1.39837   -3.35620   -0.18433
C      0.60699    3.64264   -1.88712
H      0.43493    3.37206    0.02126
H     -1.43699    4.17407   -1.80677
H     -1.78076    4.01988   -0.16584
C     -0.24241   -3.18629    2.10104
H      0.61757   -2.72286    0.23612
H     -1.99374   -3.98939    0.31812
H     -1.05296   -3.82188   -0.99685
C      0.25924    3.03363   -3.25704
C      2.14294    3.59679   -1.71574
C      0.14129    5.11696   -1.88333
C     -1.61927   -3.55145    2.68363
C      0.38288   -2.08992    2.99414
C      0.65047   -4.44765    2.14851
H      0.76092    3.60811   -4.04421
H     -0.82054    3.06478   -3.44493
H      0.59358    1.99173   -3.32685
H      2.45017    4.05786   -0.77092
H      2.62649    4.14017   -2.53756
H      2.50030    2.56024   -1.72400
H      0.62326    5.66268   -2.70451
H      0.40165    5.61222   -0.94172
H     -0.94569    5.17752   -2.01384
H     -1.49204   -3.90655    3.71274
H     -2.09964   -4.34784    2.10295
H     -2.28822   -2.68288    2.70080
H      1.38640   -1.82093    2.64734
H      0.46062   -2.45011    4.02790
H     -0.23735   -1.18579    2.98468
H      0.72970   -4.81015    3.18134
H      1.65966   -4.23268    1.78107
H      0.22268   -5.24545    1.52984
C     -3.46039    0.37206    0.68265
H     -4.08445   -0.37345    0.79452
H     -2.98308    0.59010    1.42572
H     -3.94290    1.18226    0.44235
