42
 K:9,10;1 L:25-42 F:1-7;2-7
H      1.57042   -0.12466    0.75967
C      0.08674   -2.25333    0.03455
C      2.98547   -2.69856   -0.72142
C      0.81259   -3.60442   -0.18578
C      2.15196   -1.72968   -1.57417
O      2.25869   -3.54939    0.04116
O      1.23878   -1.10691   -0.68990
H      0.64510   -3.88327   -1.23202
H      1.60214   -2.32461   -2.32757
O     -1.02763   -2.13037   -0.52156
O      0.25891   -1.82030    1.38582
C     -0.95182   -1.51486    2.09859
H     -0.67048   -1.47671    3.15589
H     -1.70887   -2.29254    1.94162
H     -1.37065   -0.54918    1.79280
O      4.19708   -2.70252   -0.62783
C      0.26699   -4.68393    0.73511
H     -0.81385   -4.77379    0.58067
H      0.45856   -4.42101    1.78074
H      0.73885   -5.64649    0.50768
C      3.01624   -0.71930   -2.32103
H      3.60761   -1.23002   -3.08964
H      3.71457   -0.21417   -1.64505
H      2.37018    0.02178   -2.80489
N      2.07483    0.63829    1.27709
C      4.29042    1.99679    1.61098
H      4.07952    3.08078    1.50446
H      5.03245    1.68772    0.84633
H      4.69790    1.79719    2.62338
C      3.05321    1.23832    1.42466
C     -0.78178    1.41331   -0.91383
C     -1.91985    0.75590   -0.14402
N      0.46063    0.61087   -0.76895
N     -2.02700   -0.65288   -0.54245
H     -0.62927    2.32804   -0.56667
H     -2.76997    1.22468   -0.33649
H     -1.02343    1.48290   -1.87073
H     -1.74504    0.81620    0.82835
H      0.84705    0.77324    0.04993
H     -2.54771   -0.72184   -1.29755
H      1.06262    0.84196   -1.42416
H     -2.42992   -1.13459    0.12914
