40
C:1 K:8,9;20 F:1-8;1-9;1-20;8-9;8-20
Cu     0.81719    0.27635    0.88102
N     -0.41837    1.72136   -0.30030
C     -1.34827    3.48727   -1.99814
H     -2.12063    3.01391   -2.63864
H     -0.51943    3.86126   -2.63376
H     -1.79839    4.33473   -1.44132
C     -0.82918    2.50120   -1.05005
C      2.61439    0.40996    1.87110
C      1.44660    0.71930    2.72374
H      3.05367   -0.56509    2.09186
H      1.36779    1.75440    3.05084
H      1.22344    0.01525    3.51996
C      3.68934    1.50423    1.81767
C      4.37003    1.67359    3.17503
H      3.22253    2.44434    1.50787
H      4.44930    1.28780    1.06330
H      5.14701    2.44219    3.12805
H      4.84184    0.73760    3.49138
H      3.64929    1.95723    3.94465
B      2.60884    0.00149   -0.09764
C      5.49040   -1.24594   -0.61962
H      6.34915   -1.18570   -1.29290
H      5.51518   -2.21220   -0.11159
H      5.58497   -0.46744    0.14038
C      3.08817    0.29970   -3.26806
H      3.64576   -0.13325   -4.10238
H      2.83078    1.33039   -3.52136
H      2.15845   -0.25708   -3.14614
C      4.03696   -2.26863   -2.37148
H      3.04517   -2.29337   -2.82383
H      4.19549   -3.21839   -1.85583
H      4.78508   -2.18143   -3.16471
C      5.17510    1.13248   -2.20025
H      5.71669    1.28893   -1.26752
H      4.90359    2.11140   -2.60108
H      5.84147    0.64288   -2.91655
O      3.11956    0.94927   -0.96956
C      4.16691   -1.12492   -1.37515
C      3.91336    0.30743   -1.98120
O      3.12097   -1.25128   -0.39875
