35
benzene_1-NO2_4-Cl.xyz 12,11=>H
C     -1.97696   -2.32718    0.00126
C     -2.35087   -4.46632    1.25505
H     -2.17078   -5.51762    1.00605
H     -1.43075   -4.05192    1.68646
H     -3.14226   -4.42376    2.01275
C     -4.26799   -3.34314    0.06815
H     -4.41965   -2.28189    0.30307
H     -4.75908   -3.55755   -0.88713
H     -4.75192   -3.94595    0.84574
C     -2.50081   -4.53177   -1.23780
H     -2.83011   -3.99242   -2.13335
H     -3.05759   -5.47464   -1.18121
H     -1.43521   -4.76436   -1.34996
C     -2.75530   -3.65600    0.00187
C     -0.95486   -1.93630   -0.86366
C     -1.14100   -2.07073   -2.38644
C     -1.80802   -2.20552    1.38080
C      0.23649   -1.42399   -0.34923
C     -0.50847   -3.09498   -3.09884
C     -1.95664   -1.15303   -3.05674
C     -0.61748   -1.69246    1.89519
C      0.40528   -1.30189    1.02995
C     -0.69156   -3.20154   -4.48154
C     -2.13973   -1.25958   -4.43943
C     -1.50719   -2.28384   -5.15184
O     -2.90785   -2.62501    2.31053
H     -3.30987   -1.82510    2.69590
H      1.04235   -1.11626   -1.03141
H      0.12552   -3.80831   -2.57783
H     -2.44830   -0.35687   -2.50299
H     -0.48449   -1.59595    2.98253
H      1.33565   -0.90100    1.43220
H     -0.19989   -3.99769   -5.03528
H     -2.77371   -0.54626   -4.96045
H     -1.64951   -2.36667   -6.22660
