22

C     -1.97696   -2.32718    0.00126
C     -2.36814   -1.29554    0.85518
C     -1.67136   -0.08735    0.85440
C     -0.58210    0.08919    0.00026
C     -0.19077   -0.94241   -0.85309
C     -0.88848   -2.15056   -0.85289
H      0.66766   -0.80358   -1.52636
H     -0.57992   -2.96360   -1.52585
H     -0.03767    1.03349   -0.00013
H     -2.52191   -3.27117    0.00170
C     -1.72672    0.66504    2.27955
C     -3.83272   -1.10769    1.21364
C     -3.94575   -0.48417    2.61249
H     -4.35549   -2.08796    1.19711
H     -4.32198   -0.44005    0.47034
C     -3.20191    0.85851    2.65994
H     -1.20395    1.64531    2.29607
H     -1.23746   -0.00261    3.02285
H     -3.67708    1.57004    1.94893
H     -3.27188    1.28959    3.68160
H     -3.50602   -1.17748    3.36322
H     -5.01583   -0.32882    2.86801

