22

C     -1.97696   -2.32718    0.00126
C     -2.36814   -1.29554    0.85518
C     -1.67136   -0.08735    0.85440
C     -0.58210    0.08919    0.00026
C     -0.19077   -0.94241   -0.85309
C     -0.88848   -2.15056   -0.85289
H      0.66766   -0.80358   -1.52636
H     -0.57992   -2.96360   -1.52585
H     -0.03767    1.03348   -0.00013
H     -2.52191   -3.27117    0.00170
C     -3.46411   -1.53844    1.92926
C     -4.13586   -0.27899    2.49572
H     -2.82816   -2.00361    2.71463
H     -4.24054   -2.27467    1.62988
C     -3.07591    0.76120    2.88665
H     -4.74392   -0.54706    3.38616
H     -4.81486    0.15494    1.72872
C     -2.20710    1.12011    1.67228
H     -2.84304    1.58527    0.88691
H     -1.43067    1.85633    1.97167
H     -2.43130    0.34736    3.69340
H     -3.57369    1.67568    3.27450

