54
F:2-9;2-22;9-29;
C      2.43698    0.51135   -2.53637
H     -0.31727    0.86112   -1.02809
C      1.84194   -0.70788   -2.75345
C      2.31271   -1.54092   -3.74835
C      3.36960   -1.15000   -4.49414
C      3.95680    0.05472   -4.25794
H      3.98541    1.82640   -3.13076
C      3.50832    0.90145   -3.28142
C      0.72816    0.27545   -1.04329
C      0.79373   -0.81842   -1.83438
H      1.85135   -2.47251   -3.92439
H      3.75263   -1.77706   -5.27212
H      4.78639    0.33954   -4.85846
H      0.09350   -1.60264   -1.80081
N      1.76339    1.11077   -1.49206
C      1.93166    2.26036   -0.84325
O      1.38107    2.41494    0.23185
C      2.75351    3.30278   -1.40307
H      3.80586    3.03196   -1.30923
H      2.54106    3.45440   -2.43082
H      2.55901    4.20807   -0.85972
O     -1.43624    1.84256   -1.14870
O     -1.25851    1.69330    1.01208
C     -1.82341    2.11120   -0.02787
C     -3.02644    2.98170    0.19034
H     -2.80591    4.01402   -0.08345
H     -3.87189    2.60492   -0.39152
H     -3.31401    2.93599    1.24561
Ir     0.52557    0.59888    1.06188
C      0.08391   -0.16174    2.99800
C      2.23871   -0.02169    2.18517
C      1.67542   -1.14881    1.61181
C      0.31113   -1.21274    2.06694
C      1.24831    0.60153    3.04376
C      2.36957   -2.10599    0.73336
C      3.60174    0.44439    1.97233
C      1.45393    1.79885    3.83411
C     -1.18239    0.12342    3.69360
C     -0.62258   -2.26771    1.76251
H     -0.46255   -2.65368    0.78004
H     -1.65083   -1.91071    1.83414
H     -0.49401   -3.08599    2.43966
H     -1.29050    1.15823    3.96115
H     -1.22976   -0.45985    4.58183
H     -2.02922   -0.11604    3.09203
H      0.51349    2.27741    4.11539
H      2.02466    2.51323    3.29462
H      1.99783    1.55628    4.72174
H      3.62314    1.51548    2.00030
H      4.00423    0.10974    1.03494
H      4.26720    0.07137    2.72938
H      3.07629   -1.62919    0.09390
H      1.67654   -2.62597    0.12147
H      2.91873   -2.83974    1.30530
