54
E(0.400000) = 0.000000
C       1.841125      0.382314     -2.726946
H      -1.076540      0.563149     -1.447354
C       1.224628     -0.804540     -3.193249
C       1.775516     -1.505359     -4.274476
C       2.930687     -1.019184     -4.857173
C       3.536783      0.150294     -4.374484
H       3.505718      1.769248     -2.965084
C       3.010723      0.867256     -3.307436
C      -0.043726     -0.046913     -1.434642
C       0.069264     -1.033817     -2.392223
H       1.298809     -2.410547     -4.641829
H       3.377281     -1.542906     -5.697413
H       4.444380      0.511931     -4.850473
H      -0.664909     -1.816991     -2.551305
N       1.073150      0.843774     -1.652484
C       1.212285      1.903731     -0.805311
O       0.549614      1.908809      0.248011
C       2.133470      3.024569     -1.128629
H       3.172317      2.715936     -0.957850
H       2.034341      3.336817     -2.172409
H       1.910817      3.860905     -0.464534
O      -2.155416      1.594863     -1.547349
O      -2.211652      1.114940      0.642705
C      -2.654792      1.704992     -0.412757
C      -3.857990      2.575274     -0.194604
H      -3.608144      3.602651     -0.285735
H      -4.628466      2.329273     -0.885558
H      -4.253807      2.400470      0.778221
Ir     -0.460384     -0.033465      0.727203
C      -1.136170     -1.084670      2.530634
C       1.121444     -0.863635      1.963415
C       0.577887     -1.904410      1.152717
C      -0.844330     -2.010389      1.455125
C       0.055512     -0.343850      2.818129
C       1.336765     -2.752600      0.195825
C       2.530258     -0.387971      1.966304
C       0.218763      0.742241      3.820099
C      -2.473616     -0.876265      3.139542
C      -1.786461     -3.011441      0.887290
H      -1.534143     -3.256398     -0.149246
H      -2.815752     -2.641178      0.899849
H      -1.756981     -3.942511      1.467336
H      -2.575678      0.130735      3.552448
H      -2.635509     -1.598275      3.949243
H      -3.269130     -1.010588      2.400556
H      -0.740428      1.201932      4.073054
H       0.874179      1.533700      3.441215
H       0.662939      0.352649      4.744656
H       2.585122      0.689186      2.155711
H       3.023287     -0.592719      1.009766
H       3.106117     -0.892064      2.752392
H       2.131486     -2.188748     -0.304755
H       0.687458     -3.171765     -0.578299
H       1.803153     -3.590819      0.727849

